@<TRIPOS>MOLECULE
ZINC000072190218
76    81    1     0     0
SMALL
USER_CHARGES
@<TRIPOS>ATOM
1      O1     -0.0653   -0.3145    0.6814 O.co2    1 ZINC000072190218   -0.7000
2      C2     -0.2423    0.7684    0.1498 C.2      1 ZINC000072190218    0.5000
3      O3      0.6810    1.3271   -0.4176 O.co2    1 ZINC000072190218   -0.7000
4      C4     -1.6037    1.4133    0.1887 C.3      1 ZINC000072190218   -0.1600
5      C5     -2.3307    0.9970    1.4703 C.3      1 ZINC000072190218   -0.0900
6      C6     -3.6872    1.7027    1.5337 C.3      1 ZINC000072190218    0.0600
7      N7     -3.4852    3.1570    1.5147 N.3      1 ZINC000072190218   -0.4800
8      C8     -4.6830    3.8271    1.7021 C.ar     1 ZINC000072190218    0.3600
9      N9     -5.7959    3.3364    1.1748 N.ar     1 ZINC000072190218   -0.5000
10     C10    -6.9569    3.9391    1.3269 C.ar     1 ZINC000072190218    0.1600
11     C11    -7.0498    5.1257    2.0558 C.ar     1 ZINC000072190218   -0.2100
12     C12    -8.3509    5.7995    2.2254 C.2      1 ZINC000072190218    0.5700
13     O13    -8.4220    6.8331    2.8622 O.2      1 ZINC000072190218   -0.4600
14     N14    -9.4610    5.2697    1.6745 N.am     1 ZINC000072190218   -0.6300
15     C15   -10.6871    5.9047    1.8342 C.2      1 ZINC000072190218    0.3300
16     N16   -10.8762    7.0077    2.4849 N.2      1 ZINC000072190218   -0.4400
17     C17   -12.1264    7.4739    2.5350 C.2      1 ZINC000072190218    0.1600
18     C18   -12.4809    8.7204    3.2428 C.2      1 ZINC000072190218   -0.1300
19     C19   -11.9025    9.1629    4.3784 C.2      1 ZINC000072190218   -0.0800
20     C20   -12.4060   10.3595    4.8528 C.2      1 ZINC000072190218   -0.0500
21     Cl21  -11.8100   11.1140    6.2982 Cl       1 ZINC000072190218   -0.0300
22     C22   -13.3843   10.8925    4.1171 C.2      1 ZINC000072190218   -0.2100
23     S23   -13.7173    9.8621    2.7316 S.3      1 ZINC000072190218    0.1800
24     C24   -13.0449    6.7180    1.8875 C.2      1 ZINC000072190218   -0.0700
25     N25   -14.4090    6.9907    1.7945 N.3      1 ZINC000072190218   -0.4300
26     C26   -15.0103    7.1305    3.1283 C.3      1 ZINC000072190218    0.0100
27     C27   -16.4912    7.4874    2.9821 C.3      1 ZINC000072190218   -0.0100
28     N28   -17.1769    6.4317    2.2253 N.4      1 ZINC000072190218   -0.3900
29     H29   -17.0792    5.5525    2.7107 H        1 ZINC000072190218    0.4200
30     C30   -18.6019    6.7660    2.1005 C.3      1 ZINC000072190218    0.0300
31     C31   -19.3165    5.6665    1.3122 C.3      1 ZINC000072190218   -0.1400
32     C32   -20.8007    6.0147    1.1821 C.3      1 ZINC000072190218   -0.1200
33     C33   -21.4218    6.1288    2.5758 C.3      1 ZINC000072190218   -0.1300
34     C34   -20.7072    7.2283    3.3641 C.3      1 ZINC000072190218   -0.1200
35     C35   -19.2230    6.8801    3.4941 C.3      1 ZINC000072190218   -0.1400
36     C36   -16.5816    6.3207    0.8871 C.3      1 ZINC000072190218    0.0000
37     C37   -15.1015    5.9542    1.0159 C.3      1 ZINC000072190218    0.0200
38     S38   -12.2172    5.3349    1.1760 S.3      1 ZINC000072190218    0.0900
39     C39    -5.8874    5.6685    2.6257 C.ar     1 ZINC000072190218    0.0100
40     C40    -4.7023    5.0059    2.4479 C.ar     1 ZINC000072190218   -0.0800
41     Cl41   -3.2357    5.6344    3.1317 Cl       1 ZINC000072190218   -0.0200
42     C42    -2.8311    3.5860    0.2719 C.3      1 ZINC000072190218    0.0700
43     C43    -1.4490    2.9366    0.1708 C.3      1 ZINC000072190218   -0.0900
44     H44    -2.1821    1.0957   -0.6789 H        1 ZINC000072190218    0.0600
45     H45    -2.4818   -0.0825    1.4687 H        1 ZINC000072190218    0.0800
46     H46    -1.7325    1.2800    2.3364 H        1 ZINC000072190218    0.0700
47     H47    -4.2902    1.4085    0.6746 H        1 ZINC000072190218    0.0500
48     H48    -4.2014    1.4194    2.4521 H        1 ZINC000072190218    0.0700
49     H49    -7.8443    3.5119    0.8838 H        1 ZINC000072190218    0.1600
50     H50    -9.4043    4.4453    1.1665 H        1 ZINC000072190218    0.4300
51     H51   -11.1098    8.6250    4.8771 H        1 ZINC000072190218    0.1600
52     H52   -13.8919   11.8199    4.3374 H        1 ZINC000072190218    0.1800
53     H53   -14.9147    6.1900    3.6708 H        1 ZINC000072190218    0.0800
54     H54   -14.4982    7.9210    3.6771 H        1 ZINC000072190218    0.1400
55     H55   -16.9424    7.5776    3.9702 H        1 ZINC000072190218    0.1400
56     H56   -16.5859    8.4348    2.4516 H        1 ZINC000072190218    0.1400
57     H57   -18.7078    7.7160    1.5766 H        1 ZINC000072190218    0.1400
58     H58   -18.8741    5.5852    0.3193 H        1 ZINC000072190218    0.0900
59     H59   -19.2107    4.7165    1.8360 H        1 ZINC000072190218    0.0900
60     H60   -20.9065    6.9647    0.6583 H        1 ZINC000072190218    0.0700
61     H61   -21.3098    5.2314    0.6205 H        1 ZINC000072190218    0.0800
62     H62   -22.4791    6.3768    2.4831 H        1 ZINC000072190218    0.0800
63     H63   -21.3160    5.1788    3.0996 H        1 ZINC000072190218    0.0700
64     H64   -20.8130    8.1783    2.8402 H        1 ZINC000072190218    0.0700
65     H65   -21.1496    7.3096    4.3569 H        1 ZINC000072190218    0.0800
66     H66   -19.1172    5.9301    4.0179 H        1 ZINC000072190218    0.0900
67     H67   -18.7139    7.6634    4.0557 H        1 ZINC000072190218    0.0900
68     H68   -17.0999    5.5460    0.3220 H        1 ZINC000072190218    0.1400
69     H69   -16.6759    7.2741    0.3673 H        1 ZINC000072190218    0.1400
70     H70   -14.6559    5.8863    0.0234 H        1 ZINC000072190218    0.1300
71     H71   -15.0074    4.9942    1.5236 H        1 ZINC000072190218    0.0800
72     H72    -5.9276    6.5855    3.1948 H        1 ZINC000072190218    0.1600
73     H73    -3.4380    3.2830   -0.5813 H        1 ZINC000072190218    0.0400
74     H74    -2.7234    4.6707    0.2738 H        1 ZINC000072190218    0.0700
75     H75    -0.8369    3.2501    1.0164 H        1 ZINC000072190218    0.0700
76     H76    -0.9701    3.2429   -0.7592 H        1 ZINC000072190218    0.0800
@<TRIPOS>BOND
1     1     2     ar
2     2     3     ar
3     2     4     1
4     4     43    1
5     4     5     1
6     4     44    1
7     5     6     1
8     5     45    1
9     5     46    1
10    6     7     1
11    6     47    1
12    6     48    1
13    7     8     1
14    7     42    1
15    8     40    ar
16    8     9     ar
17    9     10    ar
18    10    11    ar
19    10    49    1
20    11    12    1
21    11    39    ar
22    12    13    2
23    12    14    am
24    14    15    1
25    14    50    1
26    15    38    1
27    15    16    2
28    16    17    1
29    17    18    1
30    17    24    2
31    18    23    1
32    18    19    2
33    19    20    1
34    19    51    1
35    20    21    1
36    20    22    2
37    22    23    1
38    22    52    1
39    24    25    1
40    24    38    1
41    25    37    1
42    25    26    1
43    26    27    1
44    26    53    1
45    26    54    1
46    27    28    1
47    27    55    1
48    27    56    1
49    28    29    1
50    28    30    1
51    28    36    1
52    30    35    1
53    30    31    1
54    30    57    1
55    31    32    1
56    31    58    1
57    31    59    1
58    32    33    1
59    32    60    1
60    32    61    1
61    33    34    1
62    33    62    1
63    33    63    1
64    34    35    1
65    34    64    1
66    34    65    1
67    35    66    1
68    35    67    1
69    36    37    1
70    36    68    1
71    36    69    1
72    37    70    1
73    37    71    1
74    39    40    ar
75    39    72    1
76    40    41    1
77    42    43    1
78    42    73    1
79    42    74    1
80    43    75    1
81    43    76    1
@<TRIPOS>SUBSTRUCTURE
1   ZINC000072190218 1     RESIDUE    1   A     ZIN   1
