@<TRIPOS>MOLECULE
ZINC000000601229
  52   55    0    0    0
SMALL
USER_CHARGES
NO_NAME
@<TRIPOS>ATOM
    1 C1       -0.0178     1.4648     0.0101 C.3    1 <0>      -0.0500
    2 N2        0.0021    -0.0041     0.0020 N.4    1 <0>      -0.3700
    3 H3        0.4765    -0.3160    -0.8321 H      1 <0>       0.4200
    4 C4       -1.3889    -0.4961    -0.0325 C.3    1 <0>      -0.0100
    5 C5       -1.3872    -1.8789    -0.6347 C.3    1 <0>      -0.1400
    6 C6       -1.3664    -2.9677     0.4544 C.3    1 <0>      -0.1400
    7 C7       -0.4195    -2.5989     1.6143 C.3    1 <0>       0.1500
    8 H8       -0.9245    -1.8901     2.2705 H      1 <0>       0.1100
    9 N9       -0.1078    -3.8109     2.3760 N.am   1 <0>      -0.4400
   10 N10       0.5235    -4.8746     1.7308 N.2    1 <0>      -0.2300
   11 C11       0.8318    -5.9811     2.3390 C.2    1 <0>       0.1600
   12 C12       1.5140    -7.0917     1.5825 C.3    1 <0>      -0.0200
   13 C13       1.7235    -6.6696     0.1511 C.ar   1 <0>      -0.0700
   14 C14       0.7496    -6.9286    -0.7952 C.ar   1 <0>      -0.0900
   15 C15       0.9411    -6.5417    -2.1082 C.ar   1 <0>      -0.1100
   16 C16       2.1079    -5.8952    -2.4754 C.ar   1 <0>      -0.0300
   17 Cl17      2.3490    -5.4085    -4.1242 Cl     1 <0>      -0.0700
   18 C18       3.0822    -5.6363    -1.5279 C.ar   1 <0>      -0.1100
   19 C19       2.8871    -6.0186    -0.2141 C.ar   1 <0>      -0.0900
   20 C20       0.5171    -6.1485     3.7580 C.ar   1 <0>      -0.0700
   21 C21       0.8307    -7.3206     4.4483 C.ar   1 <0>      -0.0900
   22 C22       0.5126    -7.4283     5.7838 C.ar   1 <0>      -0.0800
   23 C23      -0.1159    -6.3849     6.4508 C.ar   1 <0>      -0.1000
   24 C24      -0.4351    -5.2187     5.7903 C.ar   1 <0>      -0.0500
   25 C25      -0.1228    -5.0871     4.4384 C.ar   1 <0>      -0.1300
   26 C26      -0.4341    -3.8664     3.6840 C.2    1 <0>       0.5300
   27 O27      -0.9810    -2.9235     4.2277 O.2    1 <0>      -0.5200
   28 C28       0.8688    -1.9838     1.1304 C.3    1 <0>      -0.1400
   29 C29       0.7166    -0.4482     1.1160 C.3    1 <0>      -0.0300
   30 H30       1.0047     1.8421     0.0024 H      1 <0>       0.1200
   31 H31      -0.5450     1.8259    -0.8730 H      1 <0>       0.1300
   32 H32      -0.5280     1.8163     0.9069 H      1 <0>       0.1200
   33 H33      -1.7895    -0.5369     0.9804 H      1 <0>       0.1300
   34 H34      -1.9991     0.1697    -0.6429 H      1 <0>       0.1400
   35 H35      -2.2816    -2.0027    -1.2454 H      1 <0>       0.1100
   36 H36      -0.5068    -1.9909    -1.2674 H      1 <0>       0.0900
   37 H37      -2.3751    -3.0969     0.8468 H      1 <0>       0.0800
   38 H38      -1.0362    -3.9071     0.0112 H      1 <0>       0.1000
   39 H39       2.4784    -7.3059     2.0430 H      1 <0>       0.1100
   40 H40       0.8915    -7.9860     1.6103 H      1 <0>       0.1100
   41 H41      -0.1610    -7.4336    -0.5085 H      1 <0>       0.1300
   42 H42       0.1803    -6.7444    -2.8474 H      1 <0>       0.1300
   43 H43       3.9934    -5.1319    -1.8140 H      1 <0>       0.1300
   44 H44       3.6475    -5.8163     0.5257 H      1 <0>       0.1300
   45 H45       1.3191    -8.1377     3.9382 H      1 <0>       0.1400
   46 H46       0.7545    -8.3349     6.3187 H      1 <0>       0.1400
   47 H47      -0.3574    -6.4889     7.4983 H      1 <0>       0.1400
   48 H48      -0.9236    -4.4119     6.3165 H      1 <0>       0.1400
   49 H49       1.6810    -2.2640     1.8012 H      1 <0>       0.1100
   50 H50       1.0869    -2.3393     0.1234 H      1 <0>       0.1000
   51 H51       1.7073     0.0060     1.1028 H      1 <0>       0.1400
   52 H52       0.1969    -0.1351     2.0215 H      1 <0>       0.1300
@<TRIPOS>BOND
   1    1    2 1
   2    1   30 1
   3    1   31 1
   4    1   32 1
   5    2    3 1
   6    2   29 1
   7    2    4 1
   8    4    5 1
   9    4   33 1
  10    4   34 1
  11    5    6 1
  12    5   35 1
  13    5   36 1
  14    6    7 1
  15    6   37 1
  16    6   38 1
  17    7    8 1
  18    7    9 1
  19    7   28 1
  20    9   26 am
  21    9   10 1
  22   10   11 2
  23   11   12 1
  24   11   20 1
  25   12   13 1
  26   12   39 1
  27   12   40 1
  28   13   19 ar
  29   13   14 ar
  30   14   15 ar
  31   14   41 1
  32   15   16 ar
  33   15   42 1
  34   16   17 1
  35   16   18 ar
  36   18   19 ar
  37   18   43 1
  38   19   44 1
  39   20   25 ar
  40   20   21 ar
  41   21   22 ar
  42   21   45 1
  43   22   23 ar
  44   22   46 1
  45   23   24 ar
  46   23   47 1
  47   24   25 ar
  48   24   48 1
  49   25   26 1
  50   26   27 2
  51   28   29 1
  52   28   49 1
  53   28   50 1
  54   29   51 1
  55   29   52 1
