REMARK  Name = ZINC000000601229
REMARK  4 active torsions:
REMARK  status: ('A' for Active; 'I' for Inactive)
REMARK    1  A    between atoms: C1_1  and  N2_2
REMARK    2  A    between atoms: C7_7  and  N9_9
REMARK    3  A    between atoms: C11_11  and  C12_12
REMARK    4  A    between atoms: C12_12  and  C13_13
REMARK                            x       y       z     vdW  Elec       q    Type
REMARK                         _______ _______ _______ _____ _____    ______ ____
ROOT
ATOM      1  N   UNL     1      -0.108  -3.811   2.376  0.00  0.00    -0.440 N 
ATOM      2  N   UNL     1       0.523  -4.875   1.731  0.00  0.00    -0.230 NA
ATOM      3  C   UNL     1       0.832  -5.981   2.339  0.00  0.00    +0.160 A 
ATOM      4  C   UNL     1       0.517  -6.149   3.758  0.00  0.00    -0.070 A 
ATOM      5  C   UNL     1       0.831  -7.321   4.448  0.00  0.00    +0.050 A 
ATOM      6  C   UNL     1       0.513  -7.428   5.784  0.00  0.00    +0.060 A 
ATOM      7  C   UNL     1      -0.116  -6.385   6.451  0.00  0.00    +0.040 A 
ATOM      8  C   UNL     1      -0.435  -5.219   5.790  0.00  0.00    +0.090 A 
ATOM      9  C   UNL     1      -0.123  -5.087   4.438  0.00  0.00    -0.130 A 
ATOM     10  C   UNL     1      -0.434  -3.866   3.684  0.00  0.00    +0.530 A 
ATOM     11  O   UNL     1      -0.981  -2.924   4.228  0.00  0.00    -0.520 OA
ENDROOT
BRANCH   1  17
ATOM     12  C   UNL     1      -0.018   1.465   0.010  0.00  0.00    +0.320 C 
ATOM     13  N   UNL     1       0.002  -0.004   0.002  0.00  0.00    -0.370 N 
ATOM     14  C   UNL     1      -1.389  -0.496  -0.033  0.00  0.00    +0.260 C 
ATOM     15  C   UNL     1      -1.387  -1.879  -0.635  0.00  0.00    +0.060 C 
ATOM     16  C   UNL     1      -1.366  -2.968   0.454  0.00  0.00    +0.040 C 
ATOM     17  C   UNL     1      -0.419  -2.599   1.614  0.00  0.00    +0.260 C 
ATOM     18  C   UNL     1       0.869  -1.984   1.130  0.00  0.00    +0.070 C 
ATOM     19  C   UNL     1       0.717  -0.448   1.116  0.00  0.00    +0.240 C 
ATOM     20  H   UNL     1       0.476  -0.316  -0.832  0.00  0.00    +0.420 HD
ENDBRANCH   1  17
BRANCH   3  21
ATOM     21  C   UNL     1       1.514  -7.092   1.583  0.00  0.00    +0.200 C 
BRANCH  21  22
ATOM     22  C   UNL     1       1.724  -6.670   0.151  0.00  0.00    -0.070 A 
ATOM     23  C   UNL     1       0.750  -6.929  -0.795  0.00  0.00    +0.040 A 
ATOM     24  C   UNL     1       0.941  -6.542  -2.108  0.00  0.00    +0.020 A 
ATOM     25  C   UNL     1       2.108  -5.895  -2.475  0.00  0.00    -0.030 A 
ATOM     26  C   UNL     1       3.082  -5.636  -1.528  0.00  0.00    +0.020 A 
ATOM     27 CL   UNL     1       2.349  -5.409  -4.124  0.00  0.00    -0.070 Cl
ATOM     28  C   UNL     1       2.887  -6.019  -0.214  0.00  0.00    +0.040 A 
ENDBRANCH  21  22
ENDBRANCH   3  21
TORSDOF 3
