@<TRIPOS>MOLECULE
ZINC000014210642
65    70    1     0     0
SMALL
USER_CHARGES
@<TRIPOS>ATOM
1      C1     -1.6047   -0.2789    0.6251 C.3      1 ZINC000014210642   -0.1600
2      C2     -0.7034   -1.4852    0.8963 C.3      1 ZINC000014210642    0.0800
3      O3     -0.2496   -1.4458    2.2507 O.3      1 ZINC000014210642   -0.2800
4      C4      0.5632   -2.4485    2.6555 C.2      1 ZINC000014210642    0.4900
5      N5      0.9652   -3.4394    1.9033 N.2      1 ZINC000014210642   -0.5400
6      C6      1.7696   -4.2623    2.6279 C.ar     1 ZINC000014210642    0.0700
7      C7      2.4548   -5.4411    2.3283 C.ar     1 ZINC000014210642   -0.0400
8      C8      3.2116   -6.0676    3.2972 C.ar     1 ZINC000014210642   -0.1400
9      C9      3.3030   -5.5410    4.5715 C.ar     1 ZINC000014210642   -0.0500
10     C10     2.6276   -4.3632    4.8960 C.ar     1 ZINC000014210642   -0.1100
11     C11     2.7255   -3.8014    6.2551 C.2      1 ZINC000014210642    0.5000
12     O12     2.7052   -2.5974    6.4178 O.2      1 ZINC000014210642   -0.4700
13     O13     2.8376   -4.6231    7.3173 O.3      1 ZINC000014210642   -0.3500
14     C14     2.9296   -4.0002    8.6257 C.3      1 ZINC000014210642    0.1500
15     C15     3.0482   -5.0676    9.6829 C.2      1 ZINC000014210642   -0.0400
16     C16     4.0928   -5.2671   10.4706 C.2      1 ZINC000014210642    0.0100
17     C17     5.3694   -4.4663   10.4655 C.3      1 ZINC000014210642   -0.0800
18     O18     3.8155   -6.3158   11.2834 O.3      1 ZINC000014210642   -0.2400
19     C19     2.5837   -6.7576   10.9825 C.2      1 ZINC000014210642    0.5800
20     O20     2.0067   -7.6875   11.5121 O.2      1 ZINC000014210642   -0.4200
21     O21     2.1012   -5.9856    9.9956 O.3      1 ZINC000014210642   -0.2300
22     C22     1.8559   -3.7191    3.9199 C.ar     1 ZINC000014210642    0.1000
23     N23     1.0904   -2.5731    3.9082 N.pl3    1 ZINC000014210642   -0.4700
24     C24     0.8793   -1.6589    5.0334 C.3      1 ZINC000014210642    0.1400
25     C25     1.7610   -0.4479    4.8689 C.ar     1 ZINC000014210642   -0.0900
26     C26     3.1049   -0.6079    4.5823 C.ar     1 ZINC000014210642   -0.1100
27     C27     3.9171    0.4972    4.4302 C.ar     1 ZINC000014210642   -0.1100
28     C28     3.3808    1.7771    4.5659 C.ar     1 ZINC000014210642   -0.0500
29     C29     4.2476    2.9680    4.4032 C.ar     1 ZINC000014210642   -0.0100
30     C30     5.4568    3.0523    5.0870 C.ar     1 ZINC000014210642   -0.1200
31     C31     6.2618    4.1635    4.9323 C.ar     1 ZINC000014210642   -0.1200
32     C32     5.8746    5.1994    4.0989 C.ar     1 ZINC000014210642   -0.1300
33     C33     4.6794    5.1340    3.4126 C.ar     1 ZINC000014210642   -0.0900
34     C34     3.8560    4.0172    3.5524 C.ar     1 ZINC000014210642    0.0200
35     C35     2.5757    3.9417    2.8205 C.2      1 ZINC000014210642    0.2000
36     N36     1.7000    2.9449    2.8670 N.2      1 ZINC000014210642   -0.6100
37     C37     0.6975    3.3022    2.0527 C.2      1 ZINC000014210642    0.4700
38     O38    -0.3091    2.6555    1.8173 O.2      1 ZINC000014210642   -0.5900
39     O39     1.0082    4.5047    1.5450 O.3      1 ZINC000014210642   -0.0600
40     N40     2.0764    4.8744    1.9858 N.pl3    1 ZINC000014210642   -0.4600
41     C41     2.0255    1.9321    4.8548 C.ar     1 ZINC000014210642    0.0200
42     C42     1.2221    0.8195    4.9995 C.ar     1 ZINC000014210642   -0.1200
43     H43    -1.0427    0.6397    0.7934 H        1 ZINC000014210642    0.1000
44     H44    -1.9509   -0.3090   -0.4080 H        1 ZINC000014210642    0.0800
45     H45    -2.4627   -0.3082    1.2968 H        1 ZINC000014210642    0.0600
46     H46    -1.2654   -2.4038    0.7280 H        1 ZINC000014210642    0.0600
47     H47     0.1546   -1.4559    0.2246 H        1 ZINC000014210642    0.0700
48     H48     2.3922   -5.8637    1.3364 H        1 ZINC000014210642    0.1400
49     H49     3.7380   -6.9796    3.0571 H        1 ZINC000014210642    0.1400
50     H50     3.8989   -6.0428    5.3194 H        1 ZINC000014210642    0.1400
51     H51     3.8078   -3.3554    8.6602 H        1 ZINC000014210642    0.1200
52     H52     2.0347   -3.4054    8.8086 H        1 ZINC000014210642    0.1000
53     H53     5.2765   -3.6301   11.1585 H        1 ZINC000014210642    0.1000
54     H54     6.1989   -5.1029   10.7734 H        1 ZINC000014210642    0.0900
55     H55     5.5561   -4.0867    9.4609 H        1 ZINC000014210642    0.1000
56     H56    -0.1650   -1.3475    5.0575 H        1 ZINC000014210642    0.0900
57     H57     1.1288   -2.1662    5.9653 H        1 ZINC000014210642    0.1300
58     H58     3.5193   -1.5998    4.4777 H        1 ZINC000014210642    0.1100
59     H59     4.9662    0.3711    4.2068 H        1 ZINC000014210642    0.1100
60     H60     5.7655    2.2486    5.7390 H        1 ZINC000014210642    0.1200
61     H61     7.1992    4.2252    5.4650 H        1 ZINC000014210642    0.1200
62     H62     6.5119    6.0639    3.9857 H        1 ZINC000014210642    0.1200
63     H63     4.3834    5.9457    2.7646 H        1 ZINC000014210642    0.1300
64     H64     1.6046    2.9210    4.9611 H        1 ZINC000014210642    0.1100
65     H65     0.1722    0.9383    5.2230 H        1 ZINC000014210642    0.1100
@<TRIPOS>BOND
1     1     2     1
2     1     43    1
3     1     44    1
4     1     45    1
5     2     3     1
6     2     46    1
7     2     47    1
8     3     4     1
9     4     23    1
10    4     5     2
11    5     6     1
12    6     22    ar
13    6     7     ar
14    7     8     ar
15    7     48    1
16    8     9     ar
17    8     49    1
18    9     10    ar
19    9     50    1
20    10    11    1
21    10    22    ar
22    11    12    2
23    11    13    1
24    13    14    1
25    14    15    1
26    14    51    1
27    14    52    1
28    15    21    1
29    15    16    2
30    16    17    1
31    16    18    1
32    17    53    1
33    17    54    1
34    17    55    1
35    18    19    1
36    19    20    2
37    19    21    1
38    22    23    1
39    23    24    1
40    24    25    1
41    24    56    1
42    24    57    1
43    25    42    ar
44    25    26    ar
45    26    27    ar
46    26    58    1
47    27    28    ar
48    27    59    1
49    28    29    1
50    28    41    ar
51    29    34    ar
52    29    30    ar
53    30    31    ar
54    30    60    1
55    31    32    ar
56    31    61    1
57    32    33    ar
58    32    62    1
59    33    34    ar
60    33    63    1
61    34    35    1
62    35    40    1
63    35    36    2
64    36    37    1
65    37    38    2
66    37    39    1
67    39    40    1
68    41    42    ar
69    41    64    1
70    42    65    1
@<TRIPOS>SUBSTRUCTURE
1   ZINC000014210642 1     RESIDUE    1   A     ZIN   1
