REMARK  Name = ZINC000014210642
REMARK  12 active torsions:
REMARK  status: ('A' for Active; 'I' for Inactive)
REMARK    1  A    between atoms: C1_1  and  C2_2
REMARK    2  A    between atoms: C2_2  and  O3_3
REMARK    3  A    between atoms: O3_3  and  C4_4
REMARK    4  A    between atoms: C10_10  and  C11_11
REMARK    5  A    between atoms: C11_11  and  O13_13
REMARK    6  A    between atoms: O13_13  and  C14_14
REMARK    7  A    between atoms: C14_14  and  C15_15
REMARK    8  A    between atoms: C16_16  and  C17_17
REMARK    9  A    between atoms: N23_23  and  C24_24
REMARK   10  A    between atoms: C24_24  and  C25_25
REMARK   11  A    between atoms: C28_28  and  C29_29
REMARK   12  A    between atoms: C34_34  and  C35_35
REMARK                            x       y       z     vdW  Elec       q    Type
REMARK                         _______ _______ _______ _____ _____    ______ ____
ROOT
ATOM      1  C   UNL     1       0.563  -2.449   2.655  0.00  0.00    +0.490 A 
ATOM      2  N   UNL     1       0.965  -3.439   1.903  0.00  0.00    -0.540 NA
ATOM      3  C   UNL     1       1.770  -4.262   2.628  0.00  0.00    +0.070 A 
ATOM      4  C   UNL     1       2.455  -5.441   2.328  0.00  0.00    +0.100 A 
ATOM      5  C   UNL     1       3.212  -6.068   3.297  0.00  0.00    +0.000 A 
ATOM      6  C   UNL     1       3.303  -5.541   4.572  0.00  0.00    +0.090 A 
ATOM      7  C   UNL     1       2.628  -4.363   4.896  0.00  0.00    -0.110 A 
ATOM      8  C   UNL     1       1.856  -3.719   3.920  0.00  0.00    +0.100 A 
ATOM      9  N   UNL     1       1.090  -2.573   3.908  0.00  0.00    -0.470 N 
ENDROOT
BRANCH   7  10
ATOM     10  C   UNL     1       2.725  -3.801   6.255  0.00  0.00    +0.500 C 
ATOM     11  O   UNL     1       2.705  -2.597   6.418  0.00  0.00    -0.470 OA
BRANCH  10  12
ATOM     12  O   UNL     1       2.838  -4.623   7.317  0.00  0.00    -0.350 OA
BRANCH  12  13
ATOM     13  C   UNL     1       2.930  -4.000   8.626  0.00  0.00    +0.370 C 
BRANCH  13  14
ATOM     14  C   UNL     1       3.048  -5.068   9.683  0.00  0.00    -0.040 A 
ATOM     15  C   UNL     1       4.093  -5.267  10.471  0.00  0.00    +0.010 A 
ATOM     16  O   UNL     1       3.816  -6.316  11.283  0.00  0.00    -0.240 OA
ATOM     17  C   UNL     1       2.584  -6.758  10.982  0.00  0.00    +0.580 A 
ATOM     18  O   UNL     1       2.007  -7.688  11.512  0.00  0.00    -0.420 OA
ATOM     19  C   UNL     1       5.369  -4.466  10.466  0.00  0.00    +0.210 C 
ATOM     20  O   UNL     1       2.101  -5.986   9.996  0.00  0.00    -0.230 OA
ENDBRANCH  13  14
ENDBRANCH  12  13
ENDBRANCH  10  12
ENDBRANCH   7  10
BRANCH   1  21
ATOM     21  O   UNL     1      -0.250  -1.446   2.251  0.00  0.00    -0.280 OA
BRANCH  21  23
ATOM     22  C   UNL     1      -1.605  -0.279   0.625  0.00  0.00    +0.080 C 
ATOM     23  C   UNL     1      -0.703  -1.485   0.896  0.00  0.00    +0.210 C 
ENDBRANCH  21  23
ENDBRANCH   1  21
BRANCH   9  24
ATOM     24  C   UNL     1       0.879  -1.659   5.033  0.00  0.00    +0.360 C 
BRANCH  24  25
ATOM     25  C   UNL     1       1.761  -0.448   4.869  0.00  0.00    -0.090 A 
ATOM     26  C   UNL     1       3.105  -0.608   4.582  0.00  0.00    +0.000 A 
ATOM     27  C   UNL     1       3.917   0.497   4.430  0.00  0.00    +0.000 A 
ATOM     28  C   UNL     1       3.381   1.777   4.566  0.00  0.00    -0.050 A 
ATOM     29  C   UNL     1       2.026   1.932   4.855  0.00  0.00    +0.130 A 
ATOM     30  C   UNL     1       1.222   0.820   5.000  0.00  0.00    -0.010 A 
BRANCH  28  31
ATOM     31  C   UNL     1       4.248   2.968   4.403  0.00  0.00    -0.010 A 
ATOM     32  C   UNL     1       5.457   3.052   5.087  0.00  0.00    +0.000 A 
ATOM     33  C   UNL     1       6.262   4.163   4.932  0.00  0.00    +0.000 A 
ATOM     34  C   UNL     1       5.875   5.199   4.099  0.00  0.00    -0.010 A 
ATOM     35  C   UNL     1       4.679   5.134   3.413  0.00  0.00    +0.040 A 
ATOM     36  C   UNL     1       3.856   4.017   3.552  0.00  0.00    +0.020 A 
BRANCH  36  37
ATOM     37  C   UNL     1       2.576   3.942   2.821  0.00  0.00    +0.200 A 
ATOM     38  N   UNL     1       1.700   2.945   2.867  0.00  0.00    -0.610 NA
ATOM     39  C   UNL     1       0.698   3.302   2.053  0.00  0.00    +0.470 A 
ATOM     40  O   UNL     1       1.008   4.505   1.545  0.00  0.00    -0.060 OA
ATOM     41  O   UNL     1      -0.309   2.655   1.817  0.00  0.00    -0.590 OA
ATOM     42  N   UNL     1       2.076   4.874   1.986  0.00  0.00    -0.460 NA
ENDBRANCH  36  37
ENDBRANCH  28  31
ENDBRANCH  24  25
ENDBRANCH   9  24
TORSDOF 10
