REMARK  Name = ZINC000004655029
REMARK  12 active torsions:
REMARK  status: ('A' for Active; 'I' for Inactive)
REMARK    1  A    between atoms: C1_1  and  O2_2
REMARK    2  A    between atoms: O2_2  and  C3_3
REMARK    3  A    between atoms: C4_4  and  C5_5
REMARK    4  A    between atoms: C5_5  and  C7_7
REMARK    5  A    between atoms: C5_5  and  C13_13
REMARK    6  A    between atoms: C13_13  and  O14_14
REMARK    7  A    between atoms: C13_13  and  C15_15
REMARK    8  A    between atoms: C13_13  and  C21_21
REMARK    9  A    between atoms: C15_15  and  C16_16
REMARK   10  A    between atoms: C16_16  and  N17_17
REMARK   11  A    between atoms: N17_17  and  C19_19
REMARK   12  A    between atoms: N17_17  and  C20_20
REMARK                            x       y       z     vdW  Elec       q    Type
REMARK                         _______ _______ _______ _____ _____    ______ ____
ROOT
ATOM      1  C   UNL     1      -0.255  -2.685   0.130  0.00  0.00    +0.090 C 
ENDROOT
BRANCH   1   3
ATOM      2  C   UNL     1       0.051  -0.454  -0.999  0.00  0.00    +0.360 A 
ATOM      3  C   UNL     1       0.303  -1.831  -0.980  0.00  0.00    -0.140 A 
ATOM      4  C   UNL     1       1.052  -2.398  -1.968  0.00  0.00    +0.150 A 
ATOM      5  C   UNL     1       1.554  -1.565  -2.987  0.00  0.00    -0.130 A 
ATOM      6  C   UNL     1       2.332  -2.082  -4.034  0.00  0.00    +0.090 A 
ATOM      7  C   UNL     1       2.800  -1.245  -5.003  0.00  0.00    -0.100 A 
ATOM      8  C   UNL     1       2.515   0.119  -4.967  0.00  0.00    +0.080 A 
ATOM      9  C   UNL     1       1.763   0.653  -3.965  0.00  0.00    +0.050 A 
ATOM     10 BR   UNL     1       3.848  -1.942  -6.413  0.00  0.00    -0.030 Br
ATOM     11  C   UNL     1       1.264  -0.179  -2.948  0.00  0.00    +0.180 A 
ATOM     12  N   UNL     1       0.518   0.319  -1.956  0.00  0.00    -0.530 NA
BRANCH   2  14
ATOM     13  C   UNL     1      -0.928   1.504  -0.078  0.00  0.00    +0.270 C 
ATOM     14  O   UNL     1      -0.696   0.095  -0.010  0.00  0.00    -0.310 OA
ENDBRANCH   2  14
ENDBRANCH   1   3
BRANCH   1  15
ATOM     15  C   UNL     1      -1.310  -3.606  -0.427  0.00  0.00    -0.080 A 
ATOM     16  C   UNL     1      -2.579  -3.613   0.120  0.00  0.00    +0.020 A 
ATOM     17  C   UNL     1      -3.547  -4.458  -0.391  0.00  0.00    +0.020 A 
ATOM     18  C   UNL     1      -3.245  -5.296  -1.448  0.00  0.00    +0.020 A 
ATOM     19  C   UNL     1      -1.976  -5.288  -1.995  0.00  0.00    +0.020 A 
ATOM     20  C   UNL     1      -1.009  -4.440  -1.488  0.00  0.00    -0.010 A 
ENDBRANCH   1  15
BRANCH   1  21
ATOM     21  C   UNL     1       0.872  -3.515   0.749  0.00  0.00    +0.210 C 
BRANCH  21  22
ATOM     22  C   UNL     1       0.346  -4.258   1.950  0.00  0.00    -0.120 A 
ATOM     23  C   UNL     1      -0.186  -3.551   3.041  0.00  0.00    -0.030 A 
ATOM     24  C   UNL     1      -0.242  -2.146   3.043  0.00  0.00    -0.010 A 
ATOM     25  C   UNL     1      -0.765  -1.495   4.117  0.00  0.00    +0.030 A 
ATOM     26  C   UNL     1      -1.246  -2.199   5.220  0.00  0.00    +0.010 A 
ATOM     27  C   UNL     1      -1.207  -3.559   5.253  0.00  0.00    +0.040 A 
ATOM     28  C   UNL     1      -0.676  -4.267   4.162  0.00  0.00    -0.050 A 
ATOM     29  C   UNL     1      -0.619  -5.671   4.160  0.00  0.00    +0.040 A 
ATOM     30  C   UNL     1      -0.098  -6.323   3.085  0.00  0.00    +0.010 A 
ATOM     31  C   UNL     1       0.379  -5.619   1.981  0.00  0.00    +0.040 A 
ENDBRANCH  21  22
BRANCH  21  32
ATOM     32  O   UNL     1       1.359  -4.451  -0.215  0.00  0.00    -0.560 OA
ATOM     33  H   UNL     1       0.720  -5.136  -0.456  0.00  0.00    +0.390 HD
ENDBRANCH  21  32
BRANCH  21  34
ATOM     34  C   UNL     1       2.010  -2.588   1.181  0.00  0.00    +0.060 C 
BRANCH  34  35
ATOM     35  C   UNL     1       3.112  -3.412   1.849  0.00  0.00    +0.260 C 
BRANCH  35  36
ATOM     36  N   UNL     1       4.146  -2.511   2.377  0.00  0.00    -0.390 N 
ATOM     37  C   UNL     1       4.803  -1.814   1.262  0.00  0.00    +0.320 C 
ATOM     38  C   UNL     1       5.142  -3.291   3.122  0.00  0.00    +0.310 C 
ATOM     39  H   UNL     1       3.720  -1.834   2.992  0.00  0.00    +0.420 HD
ENDBRANCH  35  36
ENDBRANCH  34  35
ENDBRANCH  21  34
ENDBRANCH   1  21
TORSDOF 9
