@<TRIPOS>MOLECULE
ZINC000008214500
97    104   1     0     0
SMALL
USER_CHARGES
@<TRIPOS>ATOM
1      O1     -0.1122    0.0082   -0.2955 O.2      1 ZINC000008214500   -0.4400
2      C2     -0.0801    1.2207   -0.1577 C.2      1 ZINC000008214500    0.4100
3      C3     -1.2722    1.9807   -0.0361 C.2      1 ZINC000008214500   -0.0700
4      O4     -2.4851    1.3644   -0.0713 O.3      1 ZINC000008214500   -0.2900
5      C5     -2.8619    0.7437   -1.3021 C.3      1 ZINC000008214500    0.1000
6      C6     -4.2736    0.2277   -1.1929 C.ar     1 ZINC000008214500   -0.0900
7      C7     -4.5069   -1.0558   -0.7355 C.ar     1 ZINC000008214500   -0.0900
8      C8     -5.8018   -1.5291   -0.6353 C.ar     1 ZINC000008214500   -0.1200
9      C9     -6.8634   -0.7189   -0.9921 C.ar     1 ZINC000008214500   -0.1100
10     C10    -6.6302    0.5649   -1.4487 C.ar     1 ZINC000008214500   -0.1200
11     C11    -5.3355    1.0397   -1.5448 C.ar     1 ZINC000008214500   -0.0900
12     C12    -1.1928    3.3323    0.1166 C.2      1 ZINC000008214500    0.1700
13     C13    -2.4411    4.1071    0.2420 C.ar     1 ZINC000008214500   -0.0700
14     C14    -3.4398    3.6882    1.1250 C.ar     1 ZINC000008214500   -0.0500
15     C15    -4.6062    4.4141    1.2407 C.ar     1 ZINC000008214500   -0.1800
16     C16    -4.7918    5.5609    0.4820 C.ar     1 ZINC000008214500    0.1300
17     O17    -5.9431    6.2728    0.6003 O.3      1 ZINC000008214500   -0.2900
18     C18    -6.9171    5.7824    1.5238 C.3      1 ZINC000008214500    0.1000
19     C19    -8.1172    6.6939    1.5194 C.ar     1 ZINC000008214500   -0.1000
20     C20    -8.1700    7.7713    2.3839 C.ar     1 ZINC000008214500   -0.0900
21     C21    -9.2708    8.6074    2.3798 C.ar     1 ZINC000008214500   -0.1200
22     C22   -10.3186    8.3664    1.5110 C.ar     1 ZINC000008214500   -0.1100
23     C23   -10.2654    7.2896    0.6458 C.ar     1 ZINC000008214500   -0.1200
24     C24    -9.1627    6.4560    0.6469 C.ar     1 ZINC000008214500   -0.0900
25     C25    -3.7998    5.9848   -0.4010 C.ar     1 ZINC000008214500    0.1000
26     O26    -3.9853    7.1093   -1.1430 O.3      1 ZINC000008214500   -0.2900
27     C27    -2.9274    7.4850   -2.0272 C.3      1 ZINC000008214500    0.1000
28     C28    -3.3090    8.7452   -2.7601 C.ar     1 ZINC000008214500   -0.1000
29     C29    -3.9836    8.6673   -3.9641 C.ar     1 ZINC000008214500   -0.0900
30     C30    -4.3337    9.8233   -4.6364 C.ar     1 ZINC000008214500   -0.1200
31     C31    -4.0094   11.0573   -4.1045 C.ar     1 ZINC000008214500   -0.1100
32     C32    -3.3356   11.1353   -2.9000 C.ar     1 ZINC000008214500   -0.1200
33     C33    -2.9893    9.9794   -2.2256 C.ar     1 ZINC000008214500   -0.0900
34     C34    -2.6260    5.2659   -0.5182 C.ar     1 ZINC000008214500   -0.1400
35     O35    -0.0189    3.9854    0.1576 O.3      1 ZINC000008214500   -0.2000
36     C36     1.1657    3.3478    0.0504 C.ar     1 ZINC000008214500    0.2300
37     C37     2.3575    4.0544    0.0978 C.ar     1 ZINC000008214500   -0.2800
38     C38     3.5662    3.3849   -0.0138 C.ar     1 ZINC000008214500    0.2400
39     O39     4.7288    4.0844    0.0335 O.3      1 ZINC000008214500   -0.2900
40     C40     4.6278    5.5001    0.1994 C.3      1 ZINC000008214500    0.1000
41     C41     6.0091    6.1021    0.2292 C.ar     1 ZINC000008214500   -0.1000
42     C42     6.6787    6.2362    1.4311 C.ar     1 ZINC000008214500   -0.0900
43     C43     7.9457    6.7884    1.4585 C.ar     1 ZINC000008214500   -0.1200
44     C44     8.5432    7.2061    0.2840 C.ar     1 ZINC000008214500   -0.1100
45     C45     7.8738    7.0712   -0.9180 C.ar     1 ZINC000008214500   -0.1200
46     C46     6.6086    6.5151   -0.9459 C.ar     1 ZINC000008214500   -0.0900
47     C47     3.5996    2.0039   -0.1733 C.ar     1 ZINC000008214500   -0.2800
48     C48     2.4218    1.2815   -0.2228 C.ar     1 ZINC000008214500    0.2600
49     O49     2.4525   -0.0663   -0.3784 O.3      1 ZINC000008214500   -0.2700
50     C50     3.7395   -0.6779   -0.4852 C.3      1 ZINC000008214500    0.0900
51     C51     3.5760   -2.1668   -0.6516 C.ar     1 ZINC000008214500   -0.1000
52     C52     3.5290   -2.9855    0.4612 C.ar     1 ZINC000008214500   -0.0900
53     C53     3.3790   -4.3512    0.3087 C.ar     1 ZINC000008214500   -0.1200
54     C54     3.2754   -4.8981   -0.9566 C.ar     1 ZINC000008214500   -0.1100
55     C55     3.3214   -4.0792   -2.0694 C.ar     1 ZINC000008214500   -0.1200
56     C56     3.4672   -2.7131   -1.9167 C.ar     1 ZINC000008214500   -0.0900
57     C57     1.1967    1.9506   -0.1050 C.ar     1 ZINC000008214500   -0.2900
58     H58    -2.8032    1.4732   -2.1099 H        1 ZINC000008214500    0.0600
59     H59    -2.1870   -0.0860   -1.5122 H        1 ZINC000008214500    0.0800
60     H60    -3.6774   -1.6888   -0.4567 H        1 ZINC000008214500    0.1300
61     H61    -5.9840   -2.5321   -0.2786 H        1 ZINC000008214500    0.1200
62     H62    -7.8751   -1.0890   -0.9145 H        1 ZINC000008214500    0.1200
63     H63    -7.4596    1.1978   -1.7278 H        1 ZINC000008214500    0.1200
64     H64    -5.1533    2.0427   -1.9015 H        1 ZINC000008214500    0.1200
65     H65    -3.2981    2.7958    1.7165 H        1 ZINC000008214500    0.1400
66     H66    -5.3775    4.0891    1.9233 H        1 ZINC000008214500    0.1400
67     H67    -7.2226    4.7781    1.2305 H        1 ZINC000008214500    0.0700
68     H68    -6.4865    5.7535    2.5247 H        1 ZINC000008214500    0.0700
69     H69    -7.3514    7.9596    3.0627 H        1 ZINC000008214500    0.1200
70     H70    -9.3124    9.4487    3.0557 H        1 ZINC000008214500    0.1300
71     H71   -11.1790    9.0192    1.5083 H        1 ZINC000008214500    0.1200
72     H72   -11.0842    7.1011   -0.0328 H        1 ZINC000008214500    0.1300
73     H73    -9.1211    5.6146   -0.0290 H        1 ZINC000008214500    0.1200
74     H74    -2.0182    7.6602   -1.4521 H        1 ZINC000008214500    0.0700
75     H75    -2.7537    6.6847   -2.7466 H        1 ZINC000008214500    0.0700
76     H76    -4.2370    7.7032   -4.3797 H        1 ZINC000008214500    0.1200
77     H77    -4.8601    9.7623   -5.5774 H        1 ZINC000008214500    0.1300
78     H78    -4.2823   11.9605   -4.6301 H        1 ZINC000008214500    0.1200
79     H79    -3.0820   12.0994   -2.4846 H        1 ZINC000008214500    0.1300
80     H80    -2.4629   10.0403   -1.2846 H        1 ZINC000008214500    0.1200
81     H81    -1.8568    5.5932   -1.2019 H        1 ZINC000008214500    0.1400
82     H82     2.3442    5.1272    0.2213 H        1 ZINC000008214500    0.1500
83     H83     4.0646    5.9241   -0.6320 H        1 ZINC000008214500    0.0800
84     H84     4.1151    5.7206    1.1356 H        1 ZINC000008214500    0.0800
85     H85     6.2120    5.9098    2.3487 H        1 ZINC000008214500    0.1300
86     H86     8.4686    6.8938    2.3976 H        1 ZINC000008214500    0.1300
87     H87     9.5327    7.6382    0.3055 H        1 ZINC000008214500    0.1300
88     H88     8.3405    7.3979   -1.8355 H        1 ZINC000008214500    0.1300
89     H89     6.0857    6.4097   -1.8849 H        1 ZINC000008214500    0.1300
90     H90     4.5480    1.4944   -0.2591 H        1 ZINC000008214500    0.1500
91     H91     4.2644   -0.2713   -1.3496 H        1 ZINC000008214500    0.0800
92     H92     4.3147   -0.4742    0.4180 H        1 ZINC000008214500    0.0800
93     H93     3.6100   -2.5582    1.4498 H        1 ZINC000008214500    0.1200
94     H94     3.3431   -4.9910    1.1781 H        1 ZINC000008214500    0.1300
95     H95     3.1589   -5.9651   -1.0759 H        1 ZINC000008214500    0.1200
96     H96     3.2408   -4.5065   -3.0580 H        1 ZINC000008214500    0.1300
97     H97     3.5031   -2.0733   -2.7861 H        1 ZINC000008214500    0.1200
@<TRIPOS>BOND
1     1     2     2
2     2     57    1
3     2     3     1
4     3     4     1
5     3     12    2
6     4     5     1
7     5     6     1
8     5     58    1
9     5     59    1
10    6     11    ar
11    6     7     ar
12    7     8     ar
13    7     60    1
14    8     9     ar
15    8     61    1
16    9     10    ar
17    9     62    1
18    10    11    ar
19    10    63    1
20    11    64    1
21    12    13    1
22    12    35    1
23    13    34    ar
24    13    14    ar
25    14    15    ar
26    14    65    1
27    15    16    ar
28    15    66    1
29    16    17    1
30    16    25    ar
31    17    18    1
32    18    19    1
33    18    67    1
34    18    68    1
35    19    24    ar
36    19    20    ar
37    20    21    ar
38    20    69    1
39    21    22    ar
40    21    70    1
41    22    23    ar
42    22    71    1
43    23    24    ar
44    23    72    1
45    24    73    1
46    25    26    1
47    25    34    ar
48    26    27    1
49    27    28    1
50    27    74    1
51    27    75    1
52    28    33    ar
53    28    29    ar
54    29    30    ar
55    29    76    1
56    30    31    ar
57    30    77    1
58    31    32    ar
59    31    78    1
60    32    33    ar
61    32    79    1
62    33    80    1
63    34    81    1
64    35    36    1
65    36    57    ar
66    36    37    ar
67    37    38    ar
68    37    82    1
69    38    39    1
70    38    47    ar
71    39    40    1
72    40    41    1
73    40    83    1
74    40    84    1
75    41    46    ar
76    41    42    ar
77    42    43    ar
78    42    85    1
79    43    44    ar
80    43    86    1
81    44    45    ar
82    44    87    1
83    45    46    ar
84    45    88    1
85    46    89    1
86    47    48    ar
87    47    90    1
88    48    49    1
89    48    57    ar
90    49    50    1
91    50    51    1
92    50    91    1
93    50    92    1
94    51    56    ar
95    51    52    ar
96    52    53    ar
97    52    93    1
98    53    54    ar
99    53    94    1
100   54    55    ar
101   54    95    1
102   55    56    ar
103   55    96    1
104   56    97    1
@<TRIPOS>SUBSTRUCTURE
1   ZINC000008214500 1     RESIDUE    1   A     ZIN   1
