MODEL 1
REMARK VINA RESULT:      -8.0      0.000      0.000
REMARK  Name = ZINC000008214500
REMARK  16 active torsions:
REMARK  status: ('A' for Active; 'I' for Inactive)
REMARK    1  A    between atoms: C3_3  and  O4_4
REMARK    2  A    between atoms: O4_4  and  C5_5
REMARK    3  A    between atoms: C5_5  and  C6_6
REMARK    4  A    between atoms: C12_12  and  C13_13
REMARK    5  A    between atoms: C16_16  and  O17_17
REMARK    6  A    between atoms: O17_17  and  C18_18
REMARK    7  A    between atoms: C18_18  and  C19_19
REMARK    8  A    between atoms: C25_25  and  O26_26
REMARK    9  A    between atoms: O26_26  and  C27_27
REMARK   10  A    between atoms: C27_27  and  C28_28
REMARK   11  A    between atoms: C38_38  and  O39_39
REMARK   12  A    between atoms: O39_39  and  C40_40
REMARK   13  A    between atoms: C40_40  and  C41_41
REMARK   14  A    between atoms: C48_48  and  O49_49
REMARK   15  A    between atoms: O49_49  and  C50_50
REMARK   16  A    between atoms: C50_50  and  C51_51
REMARK                            x       y       z     vdW  Elec       q    Type
REMARK                         _______ _______ _______ _____ _____    ______ ____
ROOT
ATOM      1  O   UNL     1      -0.379  12.575 -36.096  0.00  0.00    -0.440 OA
ATOM      2  C   UNL     1      -1.208  13.469 -36.175  0.00  0.00    +0.410 A 
ATOM      3  C   UNL     1      -1.524  14.283 -35.057  0.00  0.00    -0.070 A 
ATOM      4  C   UNL     1      -2.453  15.270 -35.188  0.00  0.00    +0.170 A 
ATOM      5  O   UNL     1      -3.091  15.510 -36.346  0.00  0.00    -0.200 OA
ATOM      6  C   UNL     1      -2.858  14.788 -37.462  0.00  0.00    +0.230 A 
ATOM      7  C   UNL     1      -3.535  15.064 -38.639  0.00  0.00    -0.130 A 
ATOM      8  C   UNL     1      -3.283  14.314 -39.777  0.00  0.00    +0.240 A 
ATOM      9  C   UNL     1      -2.353  13.281 -39.754  0.00  0.00    -0.130 A 
ATOM     10  C   UNL     1      -1.667  12.990 -38.589  0.00  0.00    +0.260 A 
ATOM     11  C   UNL     1      -1.912  13.748 -37.437  0.00  0.00    -0.290 A 
ENDROOT
BRANCH   4  12
ATOM     12  C   UNL     1      -2.769  16.107 -34.016  0.00  0.00    -0.070 A 
ATOM     13  C   UNL     1      -3.784  15.723 -33.135  0.00  0.00    +0.090 A 
ATOM     14  C   UNL     1      -4.078  16.507 -32.040  0.00  0.00    -0.040 A 
ATOM     15  C   UNL     1      -3.371  17.678 -31.809  0.00  0.00    +0.130 A 
ATOM     16  C   UNL     1      -2.357  18.068 -32.684  0.00  0.00    +0.100 A 
ATOM     17  C   UNL     1      -2.052  17.284 -33.780  0.00  0.00    +0.000 A 
BRANCH  16  18
ATOM     18  O   UNL     1      -1.666  19.215 -32.455  0.00  0.00    -0.290 OA
BRANCH  18  19
ATOM     19  C   UNL     1      -0.250  19.170 -32.649  0.00  0.00    +0.240 C 
BRANCH  19  20
ATOM     20  C   UNL     1       0.435  19.051 -31.312  0.00  0.00    -0.100 A 
ATOM     21  C   UNL     1      -0.298  19.166 -30.146  0.00  0.00    +0.030 A 
ATOM     22  C   UNL     1       0.331  19.057 -28.920  0.00  0.00    +0.010 A 
ATOM     23  C   UNL     1       1.694  18.834 -28.861  0.00  0.00    +0.010 A 
ATOM     24  C   UNL     1       2.427  18.718 -30.026  0.00  0.00    +0.010 A 
ATOM     25  C   UNL     1       1.797  18.823 -31.252  0.00  0.00    +0.030 A 
ENDBRANCH  19  20
ENDBRANCH  18  19
ENDBRANCH  16  18
BRANCH  15  26
ATOM     26  O   UNL     1      -3.665  18.447 -30.728  0.00  0.00    -0.290 OA
BRANCH  26  27
ATOM     27  C   UNL     1      -4.159  17.772 -29.569  0.00  0.00    +0.240 C 
BRANCH  27  28
ATOM     28  C   UNL     1      -3.454  18.298 -28.345  0.00  0.00    -0.100 A 
ATOM     29  C   UNL     1      -3.472  19.651 -28.064  0.00  0.00    +0.030 A 
ATOM     30  C   UNL     1      -2.824  20.133 -26.942  0.00  0.00    +0.010 A 
ATOM     31  C   UNL     1      -2.158  19.261 -26.100  0.00  0.00    +0.010 A 
ATOM     32  C   UNL     1      -2.141  17.909 -26.381  0.00  0.00    +0.010 A 
ATOM     33  C   UNL     1      -2.792  17.426 -27.500  0.00  0.00    +0.030 A 
ENDBRANCH  27  28
ENDBRANCH  26  27
ENDBRANCH  15  26
ENDBRANCH   4  12
BRANCH   8  34
ATOM     34  O   UNL     1      -3.951  14.591 -40.927  0.00  0.00    -0.290 OA
BRANCH  34  35
ATOM     35  C   UNL     1      -4.253  13.487 -41.783  0.00  0.00    +0.260 C 
BRANCH  35  36
ATOM     36  C   UNL     1      -5.539  12.842 -41.335  0.00  0.00    -0.100 A 
ATOM     37  C   UNL     1      -6.740  13.506 -41.500  0.00  0.00    +0.040 A 
ATOM     38  C   UNL     1      -7.920  12.913 -41.089  0.00  0.00    +0.010 A 
ATOM     39  C   UNL     1      -7.898  11.658 -40.513  0.00  0.00    +0.020 A 
ATOM     40  C   UNL     1      -6.698  10.993 -40.349  0.00  0.00    +0.010 A 
ATOM     41  C   UNL     1      -5.519  11.583 -40.764  0.00  0.00    +0.040 A 
ENDBRANCH  35  36
ENDBRANCH  34  35
ENDBRANCH   8  34
BRANCH   3  42
ATOM     42  O   UNL     1      -0.902  14.079 -33.863  0.00  0.00    -0.290 OA
BRANCH  42  43
ATOM     43  C   UNL     1       0.381  14.683 -33.688  0.00  0.00    +0.240 C 
BRANCH  43  44
ATOM     44  C   UNL     1       0.635  14.907 -32.220  0.00  0.00    -0.090 A 
ATOM     45  C   UNL     1       1.916  14.786 -31.714  0.00  0.00    +0.040 A 
ATOM     46  C   UNL     1       2.150  14.993 -30.367  0.00  0.00    +0.000 A 
ATOM     47  C   UNL     1       1.103  15.318 -29.527  0.00  0.00    +0.010 A 
ATOM     48  C   UNL     1      -0.179  15.438 -30.032  0.00  0.00    +0.000 A 
ATOM     49  C   UNL     1      -0.411  15.237 -31.380  0.00  0.00    +0.030 A 
ENDBRANCH  43  44
ENDBRANCH  42  43
ENDBRANCH   3  42
BRANCH  10  50
ATOM     50  O   UNL     1      -0.758  11.983 -38.565  0.00  0.00    -0.270 OA
BRANCH  50  51
ATOM     51  C   UNL     1      -1.026  10.847 -39.390  0.00  0.00    +0.250 C 
BRANCH  51  52
ATOM     52  C   UNL     1      -0.877   9.588 -38.574  0.00  0.00    -0.100 A 
ATOM     53  C   UNL     1      -1.988   8.816 -38.287  0.00  0.00    +0.030 A 
ATOM     54  C   UNL     1      -1.853   7.662 -37.539  0.00  0.00    +0.010 A 
ATOM     55  C   UNL     1      -0.607   7.279 -37.079  0.00  0.00    +0.010 A 
ATOM     56  C   UNL     1       0.503   8.050 -37.367  0.00  0.00    +0.010 A 
ATOM     57  C   UNL     1       0.369   9.202 -38.118  0.00  0.00    +0.030 A 
ENDBRANCH  51  52
ENDBRANCH  50  51
ENDBRANCH  10  50
TORSDOF 16
ENDMDL
MODEL 2
REMARK VINA RESULT:      -7.7      1.773      2.783
REMARK  Name = ZINC000008214500
REMARK  16 active torsions:
REMARK  status: ('A' for Active; 'I' for Inactive)
REMARK    1  A    between atoms: C3_3  and  O4_4
REMARK    2  A    between atoms: O4_4  and  C5_5
REMARK    3  A    between atoms: C5_5  and  C6_6
REMARK    4  A    between atoms: C12_12  and  C13_13
REMARK    5  A    between atoms: C16_16  and  O17_17
REMARK    6  A    between atoms: O17_17  and  C18_18
REMARK    7  A    between atoms: C18_18  and  C19_19
REMARK    8  A    between atoms: C25_25  and  O26_26
REMARK    9  A    between atoms: O26_26  and  C27_27
REMARK   10  A    between atoms: C27_27  and  C28_28
REMARK   11  A    between atoms: C38_38  and  O39_39
REMARK   12  A    between atoms: O39_39  and  C40_40
REMARK   13  A    between atoms: C40_40  and  C41_41
REMARK   14  A    between atoms: C48_48  and  O49_49
REMARK   15  A    between atoms: O49_49  and  C50_50
REMARK   16  A    between atoms: C50_50  and  C51_51
REMARK                            x       y       z     vdW  Elec       q    Type
REMARK                         _______ _______ _______ _____ _____    ______ ____
ROOT
ATOM      1  O   UNL     1      -0.409  12.509 -36.333  0.00  0.00    -0.440 OA
ATOM      2  C   UNL     1      -1.179  13.452 -36.424  0.00  0.00    +0.410 A 
ATOM      3  C   UNL     1      -1.478  14.270 -35.304  0.00  0.00    -0.070 A 
ATOM      4  C   UNL     1      -2.341  15.314 -35.447  0.00  0.00    +0.170 A 
ATOM      5  O   UNL     1      -2.930  15.606 -36.619  0.00  0.00    -0.200 OA
ATOM      6  C   UNL     1      -2.708  14.886 -37.738  0.00  0.00    +0.230 A 
ATOM      7  C   UNL     1      -3.332  15.217 -38.930  0.00  0.00    -0.130 A 
ATOM      8  C   UNL     1      -3.093  14.468 -40.071  0.00  0.00    +0.240 A 
ATOM      9  C   UNL     1      -2.227  13.380 -40.036  0.00  0.00    -0.130 A 
ATOM     10  C   UNL     1      -1.595  13.033 -38.857  0.00  0.00    +0.260 A 
ATOM     11  C   UNL     1      -1.828  13.790 -37.701  0.00  0.00    -0.290 A 
ENDROOT
BRANCH   4  12
ATOM     12  C   UNL     1      -2.641  16.154 -34.273  0.00  0.00    -0.070 A 
ATOM     13  C   UNL     1      -3.557  15.714 -33.312  0.00  0.00    +0.090 A 
ATOM     14  C   UNL     1      -3.835  16.500 -32.215  0.00  0.00    -0.040 A 
ATOM     15  C   UNL     1      -3.210  17.730 -32.061  0.00  0.00    +0.130 A 
ATOM     16  C   UNL     1      -2.296  18.175 -33.015  0.00  0.00    +0.100 A 
ATOM     17  C   UNL     1      -2.006  17.390 -34.114  0.00  0.00    +0.000 A 
BRANCH  16  18
ATOM     18  O   UNL     1      -1.685  19.380 -32.861  0.00  0.00    -0.290 OA
BRANCH  18  19
ATOM     19  C   UNL     1      -0.452  19.576 -33.556  0.00  0.00    +0.240 C 
BRANCH  19  20
ATOM     20  C   UNL     1       0.685  19.597 -32.566  0.00  0.00    -0.100 A 
ATOM     21  C   UNL     1       0.926  18.494 -31.767  0.00  0.00    +0.030 A 
ATOM     22  C   UNL     1       1.969  18.514 -30.860  0.00  0.00    +0.010 A 
ATOM     23  C   UNL     1       2.769  19.636 -30.751  0.00  0.00    +0.010 A 
ATOM     24  C   UNL     1       2.529  20.737 -31.551  0.00  0.00    +0.010 A 
ATOM     25  C   UNL     1       1.489  20.716 -32.461  0.00  0.00    +0.030 A 
ENDBRANCH  19  20
ENDBRANCH  18  19
ENDBRANCH  16  18
BRANCH  15  26
ATOM     26  O   UNL     1      -3.488  18.501 -30.978  0.00  0.00    -0.290 OA
BRANCH  26  27
ATOM     27  C   UNL     1      -2.901  18.109 -29.735  0.00  0.00    +0.240 C 
BRANCH  27  28
ATOM     28  C   UNL     1      -1.857  19.119 -29.333  0.00  0.00    -0.100 A 
ATOM     29  C   UNL     1      -1.904  20.402 -29.844  0.00  0.00    +0.030 A 
ATOM     30  C   UNL     1      -0.946  21.328 -29.476  0.00  0.00    +0.010 A 
ATOM     31  C   UNL     1       0.059  20.971 -28.596  0.00  0.00    +0.010 A 
ATOM     32  C   UNL     1       0.105  19.688 -28.085  0.00  0.00    +0.010 A 
ATOM     33  C   UNL     1      -0.855  18.763 -28.449  0.00  0.00    +0.030 A 
ENDBRANCH  27  28
ENDBRANCH  26  27
ENDBRANCH  15  26
ENDBRANCH   4  12
BRANCH   8  34
ATOM     34  O   UNL     1      -3.708  14.799 -41.235  0.00  0.00    -0.290 OA
BRANCH  34  35
ATOM     35  C   UNL     1      -3.225  15.959 -41.916  0.00  0.00    +0.260 C 
BRANCH  35  36
ATOM     36  C   UNL     1      -2.115  15.564 -42.855  0.00  0.00    -0.100 A 
ATOM     37  C   UNL     1      -2.275  14.480 -43.699  0.00  0.00    +0.040 A 
ATOM     38  C   UNL     1      -1.256  14.119 -44.560  0.00  0.00    +0.010 A 
ATOM     39  C   UNL     1      -0.078  14.840 -44.578  0.00  0.00    +0.020 A 
ATOM     40  C   UNL     1       0.082  15.924 -43.736  0.00  0.00    +0.010 A 
ATOM     41  C   UNL     1      -0.938  16.288 -42.877  0.00  0.00    +0.040 A 
ENDBRANCH  35  36
ENDBRANCH  34  35
ENDBRANCH   8  34
BRANCH   3  42
ATOM     42  O   UNL     1      -0.905  14.014 -34.095  0.00  0.00    -0.290 OA
BRANCH  42  43
ATOM     43  C   UNL     1       0.411  14.526 -33.880  0.00  0.00    +0.240 C 
BRANCH  43  44
ATOM     44  C   UNL     1       0.630  14.745 -32.405  0.00  0.00    -0.090 A 
ATOM     45  C   UNL     1      -0.427  15.127 -31.599  0.00  0.00    +0.040 A 
ATOM     46  C   UNL     1      -0.227  15.327 -30.245  0.00  0.00    +0.000 A 
ATOM     47  C   UNL     1       1.030  15.146 -29.699  0.00  0.00    +0.010 A 
ATOM     48  C   UNL     1       2.086  14.764 -30.505  0.00  0.00    +0.000 A 
ATOM     49  C   UNL     1       1.885  14.559 -31.857  0.00  0.00    +0.030 A 
ENDBRANCH  43  44
ENDBRANCH  42  43
ENDBRANCH   3  42
BRANCH  10  50
ATOM     50  O   UNL     1      -0.750  11.972 -38.821  0.00  0.00    -0.270 OA
BRANCH  50  51
ATOM     51  C   UNL     1      -1.142  10.805 -39.546  0.00  0.00    +0.250 C 
BRANCH  51  52
ATOM     52  C   UNL     1      -0.960   9.588 -38.675  0.00  0.00    -0.100 A 
ATOM     53  C   UNL     1      -2.038   8.767 -38.400  0.00  0.00    +0.030 A 
ATOM     54  C   UNL     1      -1.872   7.652 -37.602  0.00  0.00    +0.010 A 
ATOM     55  C   UNL     1      -0.626   7.356 -37.079  0.00  0.00    +0.010 A 
ATOM     56  C   UNL     1       0.451   8.176 -37.354  0.00  0.00    +0.010 A 
ATOM     57  C   UNL     1       0.286   9.289 -38.156  0.00  0.00    +0.030 A 
ENDBRANCH  51  52
ENDBRANCH  50  51
ENDBRANCH  10  50
TORSDOF 16
ENDMDL
MODEL 3
REMARK VINA RESULT:      -7.7      5.995     11.229
REMARK  Name = ZINC000008214500
REMARK  16 active torsions:
REMARK  status: ('A' for Active; 'I' for Inactive)
REMARK    1  A    between atoms: C3_3  and  O4_4
REMARK    2  A    between atoms: O4_4  and  C5_5
REMARK    3  A    between atoms: C5_5  and  C6_6
REMARK    4  A    between atoms: C12_12  and  C13_13
REMARK    5  A    between atoms: C16_16  and  O17_17
REMARK    6  A    between atoms: O17_17  and  C18_18
REMARK    7  A    between atoms: C18_18  and  C19_19
REMARK    8  A    between atoms: C25_25  and  O26_26
REMARK    9  A    between atoms: O26_26  and  C27_27
REMARK   10  A    between atoms: C27_27  and  C28_28
REMARK   11  A    between atoms: C38_38  and  O39_39
REMARK   12  A    between atoms: O39_39  and  C40_40
REMARK   13  A    between atoms: C40_40  and  C41_41
REMARK   14  A    between atoms: C48_48  and  O49_49
REMARK   15  A    between atoms: O49_49  and  C50_50
REMARK   16  A    between atoms: C50_50  and  C51_51
REMARK                            x       y       z     vdW  Elec       q    Type
REMARK                         _______ _______ _______ _____ _____    ______ ____
ROOT
ATOM      1  O   UNL     1      -1.246  16.176 -27.988  0.00  0.00    -0.440 OA
ATOM      2  C   UNL     1      -1.062  17.382 -28.047  0.00  0.00    +0.410 A 
ATOM      3  C   UNL     1      -1.986  18.297 -27.480  0.00  0.00    -0.070 A 
ATOM      4  C   UNL     1      -1.743  19.635 -27.566  0.00  0.00    +0.170 A 
ATOM      5  O   UNL     1      -0.652  20.131 -28.174  0.00  0.00    -0.200 OA
ATOM      6  C   UNL     1       0.281  19.340 -28.743  0.00  0.00    +0.230 A 
ATOM      7  C   UNL     1       1.395  19.887 -29.359  0.00  0.00    -0.130 A 
ATOM      8  C   UNL     1       2.345  19.060 -29.938  0.00  0.00    +0.240 A 
ATOM      9  C   UNL     1       2.196  17.678 -29.907  0.00  0.00    -0.130 A 
ATOM     10  C   UNL     1       1.092  17.113 -29.295  0.00  0.00    +0.260 A 
ATOM     11  C   UNL     1       0.130  17.942 -28.704  0.00  0.00    -0.290 A 
ENDROOT
BRANCH   4  12
ATOM     12  C   UNL     1      -2.713  20.573 -26.972  0.00  0.00    -0.070 A 
ATOM     13  C   UNL     1      -3.534  21.347 -27.796  0.00  0.00    +0.090 A 
ATOM     14  C   UNL     1      -4.441  22.223 -27.239  0.00  0.00    -0.040 A 
ATOM     15  C   UNL     1      -4.541  22.339 -25.860  0.00  0.00    +0.130 A 
ATOM     16  C   UNL     1      -3.725  21.570 -25.031  0.00  0.00    +0.100 A 
ATOM     17  C   UNL     1      -2.819  20.686 -25.582  0.00  0.00    +0.000 A 
BRANCH  16  18
ATOM     18  O   UNL     1      -3.826  21.686 -23.680  0.00  0.00    -0.290 OA
BRANCH  18  19
ATOM     19  C   UNL     1      -4.899  20.988 -23.046  0.00  0.00    +0.240 C 
BRANCH  19  20
ATOM     20  C   UNL     1      -5.733  21.961 -22.254  0.00  0.00    -0.100 A 
ATOM     21  C   UNL     1      -7.090  22.065 -22.495  0.00  0.00    +0.030 A 
ATOM     22  C   UNL     1      -7.854  22.958 -21.767  0.00  0.00    +0.010 A 
ATOM     23  C   UNL     1      -7.261  23.747 -20.799  0.00  0.00    +0.010 A 
ATOM     24  C   UNL     1      -5.905  23.641 -20.557  0.00  0.00    +0.010 A 
ATOM     25  C   UNL     1      -5.141  22.746 -21.282  0.00  0.00    +0.030 A 
ENDBRANCH  19  20
ENDBRANCH  18  19
ENDBRANCH  16  18
BRANCH  15  26
ATOM     26  O   UNL     1      -5.436  23.204 -25.315  0.00  0.00    -0.290 OA
BRANCH  26  27
ATOM     27  C   UNL     1      -5.220  24.597 -25.554  0.00  0.00    +0.240 C 
BRANCH  27  28
ATOM     28  C   UNL     1      -4.915  25.288 -24.250  0.00  0.00    -0.100 A 
ATOM     29  C   UNL     1      -3.656  25.180 -23.688  0.00  0.00    +0.030 A 
ATOM     30  C   UNL     1      -3.377  25.813 -22.492  0.00  0.00    +0.010 A 
ATOM     31  C   UNL     1      -4.356  26.553 -21.856  0.00  0.00    +0.010 A 
ATOM     32  C   UNL     1      -5.614  26.661 -22.417  0.00  0.00    +0.010 A 
ATOM     33  C   UNL     1      -5.893  26.032 -23.616  0.00  0.00    +0.030 A 
ENDBRANCH  27  28
ENDBRANCH  26  27
ENDBRANCH  15  26
ENDBRANCH   4  12
BRANCH   8  34
ATOM     34  O   UNL     1       3.433  19.604 -30.541  0.00  0.00    -0.290 OA
BRANCH  34  35
ATOM     35  C   UNL     1       4.256  20.458 -29.744  0.00  0.00    +0.260 C 
BRANCH  35  36
ATOM     36  C   UNL     1       4.775  19.690 -28.556  0.00  0.00    -0.100 A 
ATOM     37  C   UNL     1       5.642  18.630 -28.744  0.00  0.00    +0.040 A 
ATOM     38  C   UNL     1       6.118  17.925 -27.654  0.00  0.00    +0.010 A 
ATOM     39  C   UNL     1       5.728  18.281 -26.377  0.00  0.00    +0.020 A 
ATOM     40  C   UNL     1       4.862  19.342 -26.189  0.00  0.00    +0.010 A 
ATOM     41  C   UNL     1       4.389  20.049 -27.278  0.00  0.00    +0.040 A 
ENDBRANCH  35  36
ENDBRANCH  34  35
ENDBRANCH   8  34
BRANCH   3  42
ATOM     42  O   UNL     1      -3.105  17.842 -26.853  0.00  0.00    -0.290 OA
BRANCH  42  43
ATOM     43  C   UNL     1      -4.259  17.619 -27.667  0.00  0.00    +0.240 C 
BRANCH  43  44
ATOM     44  C   UNL     1      -5.437  18.352 -27.080  0.00  0.00    -0.090 A 
ATOM     45  C   UNL     1      -6.295  19.056 -27.905  0.00  0.00    +0.040 A 
ATOM     46  C   UNL     1      -7.376  19.727 -27.367  0.00  0.00    +0.000 A 
ATOM     47  C   UNL     1      -7.600  19.697 -26.004  0.00  0.00    +0.010 A 
ATOM     48  C   UNL     1      -6.742  18.993 -25.178  0.00  0.00    +0.000 A 
ATOM     49  C   UNL     1      -5.663  18.317 -25.717  0.00  0.00    +0.030 A 
ENDBRANCH  43  44
ENDBRANCH  42  43
ENDBRANCH   3  42
BRANCH  10  50
ATOM     50  O   UNL     1       0.944  15.764 -29.263  0.00  0.00    -0.270 OA
BRANCH  50  51
ATOM     51  C   UNL     1       1.922  14.987 -29.958  0.00  0.00    +0.250 C 
BRANCH  51  52
ATOM     52  C   UNL     1       1.233  14.081 -30.947  0.00  0.00    -0.100 A 
ATOM     53  C   UNL     1      -0.026  13.582 -30.665  0.00  0.00    +0.030 A 
ATOM     54  C   UNL     1      -0.658  12.751 -31.570  0.00  0.00    +0.010 A 
ATOM     55  C   UNL     1      -0.032  12.419 -32.758  0.00  0.00    +0.010 A 
ATOM     56  C   UNL     1       1.226  12.919 -33.039  0.00  0.00    +0.010 A 
ATOM     57  C   UNL     1       1.856  13.754 -32.136  0.00  0.00    +0.030 A 
ENDBRANCH  51  52
ENDBRANCH  50  51
ENDBRANCH  10  50
TORSDOF 16
ENDMDL
MODEL 4
REMARK VINA RESULT:      -7.5     18.112     22.945
REMARK  Name = ZINC000008214500
REMARK  16 active torsions:
REMARK  status: ('A' for Active; 'I' for Inactive)
REMARK    1  A    between atoms: C3_3  and  O4_4
REMARK    2  A    between atoms: O4_4  and  C5_5
REMARK    3  A    between atoms: C5_5  and  C6_6
REMARK    4  A    between atoms: C12_12  and  C13_13
REMARK    5  A    between atoms: C16_16  and  O17_17
REMARK    6  A    between atoms: O17_17  and  C18_18
REMARK    7  A    between atoms: C18_18  and  C19_19
REMARK    8  A    between atoms: C25_25  and  O26_26
REMARK    9  A    between atoms: O26_26  and  C27_27
REMARK   10  A    between atoms: C27_27  and  C28_28
REMARK   11  A    between atoms: C38_38  and  O39_39
REMARK   12  A    between atoms: O39_39  and  C40_40
REMARK   13  A    between atoms: C40_40  and  C41_41
REMARK   14  A    between atoms: C48_48  and  O49_49
REMARK   15  A    between atoms: O49_49  and  C50_50
REMARK   16  A    between atoms: C50_50  and  C51_51
REMARK                            x       y       z     vdW  Elec       q    Type
REMARK                         _______ _______ _______ _____ _____    ______ ____
ROOT
ATOM      1  O   UNL     1       0.237  -2.271 -34.065  0.00  0.00    -0.440 OA
ATOM      2  C   UNL     1       0.708  -3.142 -34.781  0.00  0.00    +0.410 A 
ATOM      3  C   UNL     1      -0.115  -3.918 -35.637  0.00  0.00    -0.070 A 
ATOM      4  C   UNL     1       0.449  -4.878 -36.421  0.00  0.00    +0.170 A 
ATOM      5  O   UNL     1       1.771  -5.124 -36.419  0.00  0.00    -0.200 OA
ATOM      6  C   UNL     1       2.632  -4.438 -35.638  0.00  0.00    +0.230 A 
ATOM      7  C   UNL     1       3.989  -4.719 -35.663  0.00  0.00    -0.130 A 
ATOM      8  C   UNL     1       4.861  -4.006 -34.856  0.00  0.00    +0.240 A 
ATOM      9  C   UNL     1       4.390  -3.002 -34.017  0.00  0.00    -0.130 A 
ATOM     10  C   UNL     1       3.039  -2.707 -33.978  0.00  0.00    +0.260 A 
ATOM     11  C   UNL     1       2.153  -3.421 -34.795  0.00  0.00    -0.290 A 
ENDROOT
BRANCH   4  12
ATOM     12  C   UNL     1      -0.420  -5.676 -37.305  0.00  0.00    -0.070 A 
ATOM     13  C   UNL     1      -0.776  -5.187 -38.565  0.00  0.00    +0.090 A 
ATOM     14  C   UNL     1      -1.589  -5.934 -39.390  0.00  0.00    -0.040 A 
ATOM     15  C   UNL     1      -2.056  -7.172 -38.972  0.00  0.00    +0.130 A 
ATOM     16  C   UNL     1      -1.706  -7.667 -37.717  0.00  0.00    +0.100 A 
ATOM     17  C   UNL     1      -0.887  -6.926 -36.887  0.00  0.00    +0.000 A 
BRANCH  16  18
ATOM     18  O   UNL     1      -2.166  -8.880 -37.311  0.00  0.00    -0.290 OA
BRANCH  18  19
ATOM     19  C   UNL     1      -2.096  -9.166 -35.912  0.00  0.00    +0.240 C 
BRANCH  19  20
ATOM     20  C   UNL     1      -3.349  -8.671 -35.236  0.00  0.00    -0.100 A 
ATOM     21  C   UNL     1      -3.266  -8.017 -34.020  0.00  0.00    +0.030 A 
ATOM     22  C   UNL     1      -4.415  -7.563 -33.400  0.00  0.00    +0.010 A 
ATOM     23  C   UNL     1      -5.646  -7.763 -33.996  0.00  0.00    +0.010 A 
ATOM     24  C   UNL     1      -5.729  -8.414 -35.211  0.00  0.00    +0.010 A 
ATOM     25  C   UNL     1      -4.580  -8.865 -35.833  0.00  0.00    +0.030 A 
ENDBRANCH  19  20
ENDBRANCH  18  19
ENDBRANCH  16  18
BRANCH  15  26
ATOM     26  O   UNL     1      -2.857  -7.905 -39.789  0.00  0.00    -0.290 OA
BRANCH  26  27
ATOM     27  C   UNL     1      -3.767  -7.183 -40.623  0.00  0.00    +0.240 C 
BRANCH  27  28
ATOM     28  C   UNL     1      -5.159  -7.288 -40.054  0.00  0.00    -0.100 A 
ATOM     29  C   UNL     1      -6.084  -6.292 -40.303  0.00  0.00    +0.030 A 
ATOM     30  C   UNL     1      -7.360  -6.388 -39.781  0.00  0.00    +0.010 A 
ATOM     31  C   UNL     1      -7.711  -7.480 -39.009  0.00  0.00    +0.010 A 
ATOM     32  C   UNL     1      -6.787  -8.476 -38.761  0.00  0.00    +0.010 A 
ATOM     33  C   UNL     1      -5.512  -8.382 -39.286  0.00  0.00    +0.030 A 
ENDBRANCH  27  28
ENDBRANCH  26  27
ENDBRANCH  15  26
ENDBRANCH   4  12
BRANCH   8  34
ATOM     34  O   UNL     1       6.189  -4.287 -34.886  0.00  0.00    -0.290 OA
BRANCH  34  35
ATOM     35  C   UNL     1       7.086  -3.175 -34.926  0.00  0.00    +0.260 C 
BRANCH  35  36
ATOM     36  C   UNL     1       8.467  -3.630 -34.530  0.00  0.00    -0.100 A 
ATOM     37  C   UNL     1       8.716  -4.035 -33.232  0.00  0.00    +0.040 A 
ATOM     38  C   UNL     1       9.983  -4.453 -32.869  0.00  0.00    +0.010 A 
ATOM     39  C   UNL     1      11.000  -4.465 -33.804  0.00  0.00    +0.020 A 
ATOM     40  C   UNL     1      10.752  -4.061 -35.102  0.00  0.00    +0.010 A 
ATOM     41  C   UNL     1       9.484  -3.648 -35.466  0.00  0.00    +0.040 A 
ENDBRANCH  35  36
ENDBRANCH  34  35
ENDBRANCH   8  34
BRANCH   3  42
ATOM     42  O   UNL     1      -1.459  -3.704 -35.674  0.00  0.00    -0.290 OA
BRANCH  42  43
ATOM     43  C   UNL     1      -2.255  -4.412 -34.722  0.00  0.00    +0.240 C 
BRANCH  43  44
ATOM     44  C   UNL     1      -3.670  -4.522 -35.232  0.00  0.00    -0.090 A 
ATOM     45  C   UNL     1      -3.920  -5.127 -36.450  0.00  0.00    +0.040 A 
ATOM     46  C   UNL     1      -5.217  -5.229 -36.917  0.00  0.00    +0.000 A 
ATOM     47  C   UNL     1      -6.263  -4.723 -36.168  0.00  0.00    +0.010 A 
ATOM     48  C   UNL     1      -6.012  -4.117 -34.950  0.00  0.00    +0.000 A 
ATOM     49  C   UNL     1      -4.715  -4.021 -34.481  0.00  0.00    +0.030 A 
ENDBRANCH  43  44
ENDBRANCH  42  43
ENDBRANCH   3  42
BRANCH  10  50
ATOM     50  O   UNL     1       2.577  -1.728 -33.160  0.00  0.00    -0.270 OA
BRANCH  50  51
ATOM     51  C   UNL     1       3.416  -1.345 -32.067  0.00  0.00    +0.250 C 
BRANCH  51  52
ATOM     52  C   UNL     1       2.994  -2.088 -30.826  0.00  0.00    -0.100 A 
ATOM     53  C   UNL     1       3.877  -2.950 -30.202  0.00  0.00    +0.030 A 
ATOM     54  C   UNL     1       3.491  -3.632 -29.064  0.00  0.00    +0.010 A 
ATOM     55  C   UNL     1       2.221  -3.452 -28.549  0.00  0.00    +0.010 A 
ATOM     56  C   UNL     1       1.338  -2.590 -29.171  0.00  0.00    +0.010 A 
ATOM     57  C   UNL     1       1.726  -1.905 -30.307  0.00  0.00    +0.030 A 
ENDBRANCH  51  52
ENDBRANCH  50  51
ENDBRANCH  10  50
TORSDOF 16
ENDMDL
MODEL 5
REMARK VINA RESULT:      -7.4      4.448     13.517
REMARK  Name = ZINC000008214500
REMARK  16 active torsions:
REMARK  status: ('A' for Active; 'I' for Inactive)
REMARK    1  A    between atoms: C3_3  and  O4_4
REMARK    2  A    between atoms: O4_4  and  C5_5
REMARK    3  A    between atoms: C5_5  and  C6_6
REMARK    4  A    between atoms: C12_12  and  C13_13
REMARK    5  A    between atoms: C16_16  and  O17_17
REMARK    6  A    between atoms: O17_17  and  C18_18
REMARK    7  A    between atoms: C18_18  and  C19_19
REMARK    8  A    between atoms: C25_25  and  O26_26
REMARK    9  A    between atoms: O26_26  and  C27_27
REMARK   10  A    between atoms: C27_27  and  C28_28
REMARK   11  A    between atoms: C38_38  and  O39_39
REMARK   12  A    between atoms: O39_39  and  C40_40
REMARK   13  A    between atoms: C40_40  and  C41_41
REMARK   14  A    between atoms: C48_48  and  O49_49
REMARK   15  A    between atoms: O49_49  and  C50_50
REMARK   16  A    between atoms: C50_50  and  C51_51
REMARK                            x       y       z     vdW  Elec       q    Type
REMARK                         _______ _______ _______ _____ _____    ______ ____
ROOT
ATOM      1  O   UNL     1       2.469  22.148 -26.720  0.00  0.00    -0.440 OA
ATOM      2  C   UNL     1       1.323  21.747 -26.851  0.00  0.00    +0.410 A 
ATOM      3  C   UNL     1       0.963  20.875 -27.911  0.00  0.00    -0.070 A 
ATOM      4  C   UNL     1      -0.326  20.450 -28.020  0.00  0.00    +0.170 A 
ATOM      5  O   UNL     1      -1.284  20.825 -27.156  0.00  0.00    -0.200 OA
ATOM      6  C   UNL     1      -1.038  21.650 -26.117  0.00  0.00    +0.230 A 
ATOM      7  C   UNL     1      -2.050  22.014 -25.245  0.00  0.00    -0.130 A 
ATOM      8  C   UNL     1      -1.781  22.863 -24.183  0.00  0.00    +0.240 A 
ATOM      9  C   UNL     1      -0.497  23.356 -23.978  0.00  0.00    -0.130 A 
ATOM     10  C   UNL     1       0.527  23.004 -24.837  0.00  0.00    +0.260 A 
ATOM     11  C   UNL     1       0.263  22.143 -25.909  0.00  0.00    -0.290 A 
ENDROOT
BRANCH   4  12
ATOM     12  C   UNL     1      -0.684  19.545 -29.128  0.00  0.00    -0.070 A 
ATOM     13  C   UNL     1      -1.089  20.070 -30.358  0.00  0.00    +0.090 A 
ATOM     14  C   UNL     1      -1.423  19.222 -31.393  0.00  0.00    -0.040 A 
ATOM     15  C   UNL     1      -1.358  17.847 -31.217  0.00  0.00    +0.130 A 
ATOM     16  C   UNL     1      -0.955  17.316 -29.993  0.00  0.00    +0.100 A 
ATOM     17  C   UNL     1      -0.613  18.159 -28.953  0.00  0.00    +0.000 A 
BRANCH  16  18
ATOM     18  O   UNL     1      -0.892  15.969 -29.823  0.00  0.00    -0.290 OA
BRANCH  18  19
ATOM     19  C   UNL     1       0.401  15.401 -29.602  0.00  0.00    +0.240 C 
BRANCH  19  20
ATOM     20  C   UNL     1       0.688  14.376 -30.669  0.00  0.00    -0.100 A 
ATOM     21  C   UNL     1       1.770  14.541 -31.513  0.00  0.00    +0.030 A 
ATOM     22  C   UNL     1       2.033  13.600 -32.491  0.00  0.00    +0.010 A 
ATOM     23  C   UNL     1       1.213  12.495 -32.625  0.00  0.00    +0.010 A 
ATOM     24  C   UNL     1       0.132  12.330 -31.780  0.00  0.00    +0.010 A 
ATOM     25  C   UNL     1      -0.128  13.268 -30.800  0.00  0.00    +0.030 A 
ENDBRANCH  19  20
ENDBRANCH  18  19
ENDBRANCH  16  18
BRANCH  15  26
ATOM     26  O   UNL     1      -1.688  17.016 -32.240  0.00  0.00    -0.290 OA
BRANCH  26  27
ATOM     27  C   UNL     1      -0.718  16.848 -33.276  0.00  0.00    +0.240 C 
BRANCH  27  28
ATOM     28  C   UNL     1      -0.965  15.541 -33.985  0.00  0.00    -0.100 A 
ATOM     29  C   UNL     1      -0.142  15.155 -35.028  0.00  0.00    +0.030 A 
ATOM     30  C   UNL     1      -0.369  13.956 -35.678  0.00  0.00    +0.010 A 
ATOM     31  C   UNL     1      -1.417  13.144 -35.287  0.00  0.00    +0.010 A 
ATOM     32  C   UNL     1      -2.238  13.530 -34.245  0.00  0.00    +0.010 A 
ATOM     33  C   UNL     1      -2.010  14.727 -33.592  0.00  0.00    +0.030 A 
ENDBRANCH  27  28
ENDBRANCH  26  27
ENDBRANCH  15  26
ENDBRANCH   4  12
BRANCH   8  34
ATOM     34  O   UNL     1      -2.779  23.215 -23.332  0.00  0.00    -0.290 OA
BRANCH  34  35
ATOM     35  C   UNL     1      -3.056  22.321 -22.253  0.00  0.00    +0.260 C 
BRANCH  35  36
ATOM     36  C   UNL     1      -4.547  22.200 -22.071  0.00  0.00    -0.100 A 
ATOM     37  C   UNL     1      -5.252  21.232 -22.764  0.00  0.00    +0.040 A 
ATOM     38  C   UNL     1      -6.620  21.122 -22.597  0.00  0.00    +0.010 A 
ATOM     39  C   UNL     1      -7.283  21.977 -21.738  0.00  0.00    +0.020 A 
ATOM     40  C   UNL     1      -6.578  22.943 -21.045  0.00  0.00    +0.010 A 
ATOM     41  C   UNL     1      -5.210  23.052 -21.208  0.00  0.00    +0.040 A 
ENDBRANCH  35  36
ENDBRANCH  34  35
ENDBRANCH   8  34
BRANCH   3  42
ATOM     42  O   UNL     1       1.899  20.468 -28.811  0.00  0.00    -0.290 OA
BRANCH  42  43
ATOM     43  C   UNL     1       2.543  19.217 -28.556  0.00  0.00    +0.240 C 
BRANCH  43  44
ATOM     44  C   UNL     1       3.922  19.466 -28.002  0.00  0.00    -0.090 A 
ATOM     45  C   UNL     1       4.451  18.607 -27.056  0.00  0.00    +0.040 A 
ATOM     46  C   UNL     1       5.717  18.834 -26.548  0.00  0.00    +0.000 A 
ATOM     47  C   UNL     1       6.451  19.920 -26.984  0.00  0.00    +0.010 A 
ATOM     48  C   UNL     1       5.922  20.779 -27.929  0.00  0.00    +0.000 A 
ATOM     49  C   UNL     1       4.658  20.549 -28.441  0.00  0.00    +0.030 A 
ENDBRANCH  43  44
ENDBRANCH  42  43
ENDBRANCH   3  42
BRANCH  10  50
ATOM     50  O   UNL     1       1.781  23.484 -24.639  0.00  0.00    -0.270 OA
BRANCH  50  51
ATOM     51  C   UNL     1       2.278  23.470 -23.299  0.00  0.00    +0.250 C 
BRANCH  51  52
ATOM     52  C   UNL     1       2.845  22.109 -22.987  0.00  0.00    -0.100 A 
ATOM     53  C   UNL     1       3.752  21.524 -23.851  0.00  0.00    +0.030 A 
ATOM     54  C   UNL     1       4.272  20.276 -23.567  0.00  0.00    +0.010 A 
ATOM     55  C   UNL     1       3.886  19.612 -22.417  0.00  0.00    +0.010 A 
ATOM     56  C   UNL     1       2.980  20.197 -21.553  0.00  0.00    +0.010 A 
ATOM     57  C   UNL     1       2.462  21.447 -21.835  0.00  0.00    +0.030 A 
ENDBRANCH  51  52
ENDBRANCH  50  51
ENDBRANCH  10  50
TORSDOF 16
ENDMDL
MODEL 6
REMARK VINA RESULT:      -7.4      6.020     11.297
REMARK  Name = ZINC000008214500
REMARK  16 active torsions:
REMARK  status: ('A' for Active; 'I' for Inactive)
REMARK    1  A    between atoms: C3_3  and  O4_4
REMARK    2  A    between atoms: O4_4  and  C5_5
REMARK    3  A    between atoms: C5_5  and  C6_6
REMARK    4  A    between atoms: C12_12  and  C13_13
REMARK    5  A    between atoms: C16_16  and  O17_17
REMARK    6  A    between atoms: O17_17  and  C18_18
REMARK    7  A    between atoms: C18_18  and  C19_19
REMARK    8  A    between atoms: C25_25  and  O26_26
REMARK    9  A    between atoms: O26_26  and  C27_27
REMARK   10  A    between atoms: C27_27  and  C28_28
REMARK   11  A    between atoms: C38_38  and  O39_39
REMARK   12  A    between atoms: O39_39  and  C40_40
REMARK   13  A    between atoms: C40_40  and  C41_41
REMARK   14  A    between atoms: C48_48  and  O49_49
REMARK   15  A    between atoms: O49_49  and  C50_50
REMARK   16  A    between atoms: C50_50  and  C51_51
REMARK                            x       y       z     vdW  Elec       q    Type
REMARK                         _______ _______ _______ _____ _____    ______ ____
ROOT
ATOM      1  O   UNL     1      -2.003  17.107 -28.664  0.00  0.00    -0.440 OA
ATOM      2  C   UNL     1      -1.378  18.119 -28.388  0.00  0.00    +0.410 A 
ATOM      3  C   UNL     1      -2.004  19.222 -27.752  0.00  0.00    -0.070 A 
ATOM      4  C   UNL     1      -1.271  20.332 -27.459  0.00  0.00    +0.170 A 
ATOM      5  O   UNL     1       0.038  20.428 -27.750  0.00  0.00    -0.200 OA
ATOM      6  C   UNL     1       0.719  19.432 -28.354  0.00  0.00    +0.230 A 
ATOM      7  C   UNL     1       2.068  19.566 -28.638  0.00  0.00    -0.130 A 
ATOM      8  C   UNL     1       2.753  18.533 -29.258  0.00  0.00    +0.240 A 
ATOM      9  C   UNL     1       2.101  17.354 -29.601  0.00  0.00    -0.130 A 
ATOM     10  C   UNL     1       0.754  17.201 -29.325  0.00  0.00    +0.260 A 
ATOM     11  C   UNL     1       0.057  18.239 -28.694  0.00  0.00    -0.290 A 
ENDROOT
BRANCH   4  12
ATOM     12  C   UNL     1      -1.937  21.469 -26.799  0.00  0.00    -0.070 A 
ATOM     13  C   UNL     1      -1.564  21.844 -25.505  0.00  0.00    +0.090 A 
ATOM     14  C   UNL     1      -2.188  22.908 -24.889  0.00  0.00    -0.040 A 
ATOM     15  C   UNL     1      -3.186  23.609 -25.551  0.00  0.00    +0.130 A 
ATOM     16  C   UNL     1      -3.563  23.241 -26.841  0.00  0.00    +0.100 A 
ATOM     17  C   UNL     1      -2.939  22.180 -27.467  0.00  0.00    +0.000 A 
BRANCH  16  18
ATOM     18  O   UNL     1      -4.542  23.930 -27.487  0.00  0.00    -0.290 OA
BRANCH  18  19
ATOM     19  C   UNL     1      -4.963  23.425 -28.756  0.00  0.00    +0.240 C 
BRANCH  19  20
ATOM     20  C   UNL     1      -6.193  22.574 -28.574  0.00  0.00    -0.100 A 
ATOM     21  C   UNL     1      -7.323  23.109 -27.983  0.00  0.00    +0.030 A 
ATOM     22  C   UNL     1      -8.451  22.328 -27.817  0.00  0.00    +0.010 A 
ATOM     23  C   UNL     1      -8.450  21.012 -28.242  0.00  0.00    +0.010 A 
ATOM     24  C   UNL     1      -7.321  20.478 -28.833  0.00  0.00    +0.010 A 
ATOM     25  C   UNL     1      -6.194  21.260 -29.003  0.00  0.00    +0.030 A 
ENDBRANCH  19  20
ENDBRANCH  18  19
ENDBRANCH  16  18
BRANCH  15  26
ATOM     26  O   UNL     1      -3.798  24.658 -24.940  0.00  0.00    -0.290 OA
BRANCH  26  27
ATOM     27  C   UNL     1      -3.609  24.785 -23.528  0.00  0.00    +0.240 C 
BRANCH  27  28
ATOM     28  C   UNL     1      -4.720  24.065 -22.808  0.00  0.00    -0.100 A 
ATOM     29  C   UNL     1      -4.422  23.065 -21.900  0.00  0.00    +0.030 A 
ATOM     30  C   UNL     1      -5.441  22.405 -21.240  0.00  0.00    +0.010 A 
ATOM     31  C   UNL     1      -6.759  22.744 -21.487  0.00  0.00    +0.010 A 
ATOM     32  C   UNL     1      -7.056  23.743 -22.393  0.00  0.00    +0.010 A 
ATOM     33  C   UNL     1      -6.038  24.407 -23.051  0.00  0.00    +0.030 A 
ENDBRANCH  27  28
ENDBRANCH  26  27
ENDBRANCH  15  26
ENDBRANCH   4  12
BRANCH   8  34
ATOM     34  O   UNL     1       4.076  18.672 -29.533  0.00  0.00    -0.290 OA
BRANCH  34  35
ATOM     35  C   UNL     1       4.993  18.012 -28.658  0.00  0.00    +0.260 C 
BRANCH  35  36
ATOM     36  C   UNL     1       5.309  18.911 -27.491  0.00  0.00    -0.100 A 
ATOM     37  C   UNL     1       4.894  18.564 -26.218  0.00  0.00    +0.040 A 
ATOM     38  C   UNL     1       5.184  19.389 -25.148  0.00  0.00    +0.010 A 
ATOM     39  C   UNL     1       5.889  20.561 -25.349  0.00  0.00    +0.020 A 
ATOM     40  C   UNL     1       6.305  20.908 -26.621  0.00  0.00    +0.010 A 
ATOM     41  C   UNL     1       6.019  20.081 -27.691  0.00  0.00    +0.040 A 
ENDBRANCH  35  36
ENDBRANCH  34  35
ENDBRANCH   8  34
BRANCH   3  42
ATOM     42  O   UNL     1      -3.327  19.171 -27.437  0.00  0.00    -0.290 OA
BRANCH  42  43
ATOM     43  C   UNL     1      -3.670  18.613 -26.167  0.00  0.00    +0.240 C 
BRANCH  43  44
ATOM     44  C   UNL     1      -4.988  19.183 -25.706  0.00  0.00    -0.090 A 
ATOM     45  C   UNL     1      -5.031  20.431 -25.114  0.00  0.00    +0.040 A 
ATOM     46  C   UNL     1      -6.239  20.955 -24.693  0.00  0.00    +0.000 A 
ATOM     47  C   UNL     1      -7.403  20.230 -24.863  0.00  0.00    +0.010 A 
ATOM     48  C   UNL     1      -7.360  18.981 -25.455  0.00  0.00    +0.000 A 
ATOM     49  C   UNL     1      -6.152  18.460 -25.881  0.00  0.00    +0.030 A 
ENDBRANCH  43  44
ENDBRANCH  42  43
ENDBRANCH   3  42
BRANCH  10  50
ATOM     50  O   UNL     1       0.115  16.051 -29.658  0.00  0.00    -0.270 OA
BRANCH  50  51
ATOM     51  C   UNL     1       0.837  14.831 -29.476  0.00  0.00    +0.250 C 
BRANCH  51  52
ATOM     52  C   UNL     1       0.862  14.063 -30.773  0.00  0.00    -0.100 A 
ATOM     53  C   UNL     1       1.889  14.266 -31.676  0.00  0.00    +0.030 A 
ATOM     54  C   UNL     1       1.912  13.563 -32.865  0.00  0.00    +0.010 A 
ATOM     55  C   UNL     1       0.909  12.655 -33.151  0.00  0.00    +0.010 A 
ATOM     56  C   UNL     1      -0.117  12.452 -32.248  0.00  0.00    +0.010 A 
ATOM     57  C   UNL     1      -0.139  13.152 -31.056  0.00  0.00    +0.030 A 
ENDBRANCH  51  52
ENDBRANCH  50  51
ENDBRANCH  10  50
TORSDOF 16
ENDMDL
MODEL 7
REMARK VINA RESULT:      -7.3     10.322     16.641
REMARK  Name = ZINC000008214500
REMARK  16 active torsions:
REMARK  status: ('A' for Active; 'I' for Inactive)
REMARK    1  A    between atoms: C3_3  and  O4_4
REMARK    2  A    between atoms: O4_4  and  C5_5
REMARK    3  A    between atoms: C5_5  and  C6_6
REMARK    4  A    between atoms: C12_12  and  C13_13
REMARK    5  A    between atoms: C16_16  and  O17_17
REMARK    6  A    between atoms: O17_17  and  C18_18
REMARK    7  A    between atoms: C18_18  and  C19_19
REMARK    8  A    between atoms: C25_25  and  O26_26
REMARK    9  A    between atoms: O26_26  and  C27_27
REMARK   10  A    between atoms: C27_27  and  C28_28
REMARK   11  A    between atoms: C38_38  and  O39_39
REMARK   12  A    between atoms: O39_39  and  C40_40
REMARK   13  A    between atoms: C40_40  and  C41_41
REMARK   14  A    between atoms: C48_48  and  O49_49
REMARK   15  A    between atoms: O49_49  and  C50_50
REMARK   16  A    between atoms: C50_50  and  C51_51
REMARK                            x       y       z     vdW  Elec       q    Type
REMARK                         _______ _______ _______ _____ _____    ______ ____
ROOT
ATOM      1  O   UNL     1       6.123  22.832 -22.406  0.00  0.00    -0.440 OA
ATOM      2  C   UNL     1       5.425  21.848 -22.595  0.00  0.00    +0.410 A 
ATOM      3  C   UNL     1       4.441  21.450 -21.653  0.00  0.00    -0.070 A 
ATOM      4  C   UNL     1       3.682  20.347 -21.902  0.00  0.00    +0.170 A 
ATOM      5  O   UNL     1       3.827  19.609 -23.016  0.00  0.00    -0.200 OA
ATOM      6  C   UNL     1       4.735  19.909 -23.968  0.00  0.00    +0.230 A 
ATOM      7  C   UNL     1       4.855  19.126 -25.105  0.00  0.00    -0.130 A 
ATOM      8  C   UNL     1       5.793  19.448 -26.073  0.00  0.00    +0.240 A 
ATOM      9  C   UNL     1       6.621  20.555 -25.920  0.00  0.00    -0.130 A 
ATOM     10  C   UNL     1       6.516  21.348 -24.792  0.00  0.00    +0.260 A 
ATOM     11  C   UNL     1       5.566  21.033 -23.812  0.00  0.00    -0.290 A 
ENDROOT
BRANCH   4  12
ATOM     12  C   UNL     1       2.664  19.947 -20.913  0.00  0.00    -0.070 A 
ATOM     13  C   UNL     1       1.404  20.551 -20.922  0.00  0.00    +0.090 A 
ATOM     14  C   UNL     1       0.454  20.176 -19.997  0.00  0.00    -0.040 A 
ATOM     15  C   UNL     1       0.745  19.199 -19.055  0.00  0.00    +0.130 A 
ATOM     16  C   UNL     1       2.000  18.592 -19.040  0.00  0.00    +0.100 A 
ATOM     17  C   UNL     1       2.955  18.959 -19.968  0.00  0.00    +0.000 A 
BRANCH  16  18
ATOM     18  O   UNL     1       2.282  17.635 -18.116  0.00  0.00    -0.290 OA
BRANCH  18  19
ATOM     19  C   UNL     1       3.125  18.014 -17.026  0.00  0.00    +0.240 C 
BRANCH  19  20
ATOM     20  C   UNL     1       2.576  17.443 -15.744  0.00  0.00    -0.100 A 
ATOM     21  C   UNL     1       2.519  18.227 -14.607  0.00  0.00    +0.030 A 
ATOM     22  C   UNL     1       2.015  17.703 -13.431  0.00  0.00    +0.010 A 
ATOM     23  C   UNL     1       1.568  16.395 -13.393  0.00  0.00    +0.010 A 
ATOM     24  C   UNL     1       1.623  15.612 -14.530  0.00  0.00    +0.010 A 
ATOM     25  C   UNL     1       2.124  16.137 -15.707  0.00  0.00    +0.030 A 
ENDBRANCH  19  20
ENDBRANCH  18  19
ENDBRANCH  16  18
BRANCH  15  26
ATOM     26  O   UNL     1      -0.196  18.833 -18.145  0.00  0.00    -0.290 OA
BRANCH  26  27
ATOM     27  C   UNL     1      -0.284  19.616 -16.952  0.00  0.00    +0.240 C 
BRANCH  27  28
ATOM     28  C   UNL     1      -0.900  18.789 -15.854  0.00  0.00    -0.100 A 
ATOM     29  C   UNL     1      -1.266  17.478 -16.098  0.00  0.00    +0.030 A 
ATOM     30  C   UNL     1      -1.832  16.719 -15.091  0.00  0.00    +0.010 A 
ATOM     31  C   UNL     1      -2.033  17.271 -13.839  0.00  0.00    +0.010 A 
ATOM     32  C   UNL     1      -1.667  18.581 -13.595  0.00  0.00    +0.010 A 
ATOM     33  C   UNL     1      -1.097  19.339 -14.601  0.00  0.00    +0.030 A 
ENDBRANCH  27  28
ENDBRANCH  26  27
ENDBRANCH  15  26
ENDBRANCH   4  12
BRANCH   8  34
ATOM     34  O   UNL     1       5.905  18.676 -27.185  0.00  0.00    -0.290 OA
BRANCH  34  35
ATOM     35  C   UNL     1       4.689  18.234 -27.792  0.00  0.00    +0.260 C 
BRANCH  35  36
ATOM     36  C   UNL     1       4.435  19.030 -29.045  0.00  0.00    -0.100 A 
ATOM     37  C   UNL     1       5.462  19.748 -29.629  0.00  0.00    +0.040 A 
ATOM     38  C   UNL     1       5.229  20.478 -30.779  0.00  0.00    +0.010 A 
ATOM     39  C   UNL     1       3.968  20.490 -31.346  0.00  0.00    +0.020 A 
ATOM     40  C   UNL     1       2.941  19.772 -30.764  0.00  0.00    +0.010 A 
ATOM     41  C   UNL     1       3.176  19.038 -29.616  0.00  0.00    +0.040 A 
ENDBRANCH  35  36
ENDBRANCH  34  35
ENDBRANCH   8  34
BRANCH   3  42
ATOM     42  O   UNL     1       4.258  22.166 -20.510  0.00  0.00    -0.290 OA
BRANCH  42  43
ATOM     43  C   UNL     1       5.145  21.893 -19.424  0.00  0.00    +0.240 C 
BRANCH  43  44
ATOM     44  C   UNL     1       4.361  21.826 -18.138  0.00  0.00    -0.090 A 
ATOM     45  C   UNL     1       4.959  21.343 -16.989  0.00  0.00    +0.040 A 
ATOM     46  C   UNL     1       4.241  21.282 -15.810  0.00  0.00    +0.000 A 
ATOM     47  C   UNL     1       2.924  21.702 -15.781  0.00  0.00    +0.010 A 
ATOM     48  C   UNL     1       2.326  22.184 -16.930  0.00  0.00    +0.000 A 
ATOM     49  C   UNL     1       3.047  22.250 -18.108  0.00  0.00    +0.030 A 
ENDBRANCH  43  44
ENDBRANCH  42  43
ENDBRANCH   3  42
BRANCH  10  50
ATOM     50  O   UNL     1       7.322  22.429 -24.640  0.00  0.00    -0.270 OA
BRANCH  50  51
ATOM     51  C   UNL     1       8.695  22.273 -25.007  0.00  0.00    +0.250 C 
BRANCH  51  52
ATOM     52  C   UNL     1       9.407  21.464 -23.952  0.00  0.00    -0.100 A 
ATOM     53  C   UNL     1      10.095  20.319 -24.307  0.00  0.00    +0.030 A 
ATOM     54  C   UNL     1      10.748  19.578 -23.342  0.00  0.00    +0.010 A 
ATOM     55  C   UNL     1      10.713  19.981 -22.019  0.00  0.00    +0.010 A 
ATOM     56  C   UNL     1      10.026  21.126 -21.665  0.00  0.00    +0.010 A 
ATOM     57  C   UNL     1       9.376  21.871 -22.632  0.00  0.00    +0.030 A 
ENDBRANCH  51  52
ENDBRANCH  50  51
ENDBRANCH  10  50
TORSDOF 16
ENDMDL
MODEL 8
REMARK VINA RESULT:      -7.3     17.380     19.855
REMARK  Name = ZINC000008214500
REMARK  16 active torsions:
REMARK  status: ('A' for Active; 'I' for Inactive)
REMARK    1  A    between atoms: C3_3  and  O4_4
REMARK    2  A    between atoms: O4_4  and  C5_5
REMARK    3  A    between atoms: C5_5  and  C6_6
REMARK    4  A    between atoms: C12_12  and  C13_13
REMARK    5  A    between atoms: C16_16  and  O17_17
REMARK    6  A    between atoms: O17_17  and  C18_18
REMARK    7  A    between atoms: C18_18  and  C19_19
REMARK    8  A    between atoms: C25_25  and  O26_26
REMARK    9  A    between atoms: O26_26  and  C27_27
REMARK   10  A    between atoms: C27_27  and  C28_28
REMARK   11  A    between atoms: C38_38  and  O39_39
REMARK   12  A    between atoms: O39_39  and  C40_40
REMARK   13  A    between atoms: C40_40  and  C41_41
REMARK   14  A    between atoms: C48_48  and  O49_49
REMARK   15  A    between atoms: O49_49  and  C50_50
REMARK   16  A    between atoms: C50_50  and  C51_51
REMARK                            x       y       z     vdW  Elec       q    Type
REMARK                         _______ _______ _______ _____ _____    ______ ____
ROOT
ATOM      1  O   UNL     1       4.793  -3.207 -29.947  0.00  0.00    -0.440 OA
ATOM      2  C   UNL     1       3.679  -2.722 -30.072  0.00  0.00    +0.410 A 
ATOM      3  C   UNL     1       2.854  -2.469 -28.945  0.00  0.00    -0.070 A 
ATOM      4  C   UNL     1       1.619  -1.925 -29.127  0.00  0.00    +0.170 A 
ATOM      5  O   UNL     1       1.141  -1.614 -30.343  0.00  0.00    -0.200 OA
ATOM      6  C   UNL     1       1.852  -1.818 -31.473  0.00  0.00    +0.230 A 
ATOM      7  C   UNL     1       1.327  -1.483 -32.710  0.00  0.00    -0.130 A 
ATOM      8  C   UNL     1       2.070  -1.698 -33.861  0.00  0.00    +0.240 A 
ATOM      9  C   UNL     1       3.345  -2.248 -33.789  0.00  0.00    -0.130 A 
ATOM     10  C   UNL     1       3.886  -2.589 -32.563  0.00  0.00    +0.260 A 
ATOM     11  C   UNL     1       3.143  -2.369 -31.396  0.00  0.00    -0.290 A 
ENDROOT
BRANCH   4  12
ATOM     12  C   UNL     1       0.775  -1.670 -27.945  0.00  0.00    -0.070 A 
ATOM     13  C   UNL     1       1.212  -0.793 -26.948  0.00  0.00    +0.090 A 
ATOM     14  C   UNL     1       0.421  -0.555 -25.845  0.00  0.00    -0.040 A 
ATOM     15  C   UNL     1      -0.810  -1.184 -25.720  0.00  0.00    +0.130 A 
ATOM     16  C   UNL     1      -1.253  -2.059 -26.710  0.00  0.00    +0.100 A 
ATOM     17  C   UNL     1      -0.468  -2.298 -27.822  0.00  0.00    +0.000 A 
BRANCH  16  18
ATOM     18  O   UNL     1      -2.459  -2.673 -26.585  0.00  0.00    -0.290 OA
BRANCH  18  19
ATOM     19  C   UNL     1      -2.464  -4.102 -26.589  0.00  0.00    +0.240 C 
BRANCH  19  20
ATOM     20  C   UNL     1      -3.230  -4.605 -25.393  0.00  0.00    -0.100 A 
ATOM     21  C   UNL     1      -4.606  -4.480 -25.350  0.00  0.00    +0.030 A 
ATOM     22  C   UNL     1      -5.308  -4.941 -24.252  0.00  0.00    +0.010 A 
ATOM     23  C   UNL     1      -4.634  -5.527 -23.197  0.00  0.00    +0.010 A 
ATOM     24  C   UNL     1      -3.259  -5.653 -23.240  0.00  0.00    +0.010 A 
ATOM     25  C   UNL     1      -2.557  -5.196 -24.340  0.00  0.00    +0.030 A 
ENDBRANCH  19  20
ENDBRANCH  18  19
ENDBRANCH  16  18
BRANCH  15  26
ATOM     26  O   UNL     1      -1.585  -0.945 -24.630  0.00  0.00    -0.290 OA
BRANCH  26  27
ATOM     27  C   UNL     1      -1.300  -1.704 -23.453  0.00  0.00    +0.240 C 
BRANCH  27  28
ATOM     28  C   UNL     1      -2.576  -1.939 -22.686  0.00  0.00    -0.100 A 
ATOM     29  C   UNL     1      -2.535  -2.544 -21.444  0.00  0.00    +0.030 A 
ATOM     30  C   UNL     1      -3.706  -2.760 -20.741  0.00  0.00    +0.010 A 
ATOM     31  C   UNL     1      -4.918  -2.371 -21.281  0.00  0.00    +0.010 A 
ATOM     32  C   UNL     1      -4.958  -1.765 -22.522  0.00  0.00    +0.010 A 
ATOM     33  C   UNL     1      -3.788  -1.546 -23.223  0.00  0.00    +0.030 A 
ENDBRANCH  27  28
ENDBRANCH  26  27
ENDBRANCH  15  26
ENDBRANCH   4  12
BRANCH   8  34
ATOM     34  O   UNL     1       1.549  -1.367 -35.070  0.00  0.00    -0.290 OA
BRANCH  34  35
ATOM     35  C   UNL     1       0.650  -2.304 -35.667  0.00  0.00    +0.260 C 
BRANCH  35  36
ATOM     36  C   UNL     1       1.433  -3.452 -36.248  0.00  0.00    -0.100 A 
ATOM     37  C   UNL     1       2.301  -3.234 -37.302  0.00  0.00    +0.040 A 
ATOM     38  C   UNL     1       3.020  -4.288 -37.835  0.00  0.00    +0.010 A 
ATOM     39  C   UNL     1       2.872  -5.559 -37.313  0.00  0.00    +0.020 A 
ATOM     40  C   UNL     1       2.006  -5.777 -36.258  0.00  0.00    +0.010 A 
ATOM     41  C   UNL     1       1.290  -4.723 -35.723  0.00  0.00    +0.040 A 
ENDBRANCH  35  36
ENDBRANCH  34  35
ENDBRANCH   8  34
BRANCH   3  42
ATOM     42  O   UNL     1       3.295  -2.768 -27.692  0.00  0.00    -0.290 OA
BRANCH  42  43
ATOM     43  C   UNL     1       3.050  -4.092 -27.216  0.00  0.00    +0.240 C 
BRANCH  43  44
ATOM     44  C   UNL     1       2.456  -4.028 -25.833  0.00  0.00    -0.090 A 
ATOM     45  C   UNL     1       3.050  -3.243 -24.862  0.00  0.00    +0.040 A 
ATOM     46  C   UNL     1       2.505  -3.182 -23.593  0.00  0.00    +0.000 A 
ATOM     47  C   UNL     1       1.368  -3.908 -23.295  0.00  0.00    +0.010 A 
ATOM     48  C   UNL     1       0.773  -4.693 -24.265  0.00  0.00    +0.000 A 
ATOM     49  C   UNL     1       1.316  -4.749 -25.536  0.00  0.00    +0.030 A 
ENDBRANCH  43  44
ENDBRANCH  42  43
ENDBRANCH   3  42
BRANCH  10  50
ATOM     50  O   UNL     1       5.130  -3.126 -32.491  0.00  0.00    -0.270 OA
BRANCH  50  51
ATOM     51  C   UNL     1       6.128  -2.570 -33.349  0.00  0.00    +0.250 C 
BRANCH  51  52
ATOM     52  C   UNL     1       6.256  -3.419 -34.588  0.00  0.00    -0.100 A 
ATOM     53  C   UNL     1       6.475  -2.822 -35.815  0.00  0.00    +0.030 A 
ATOM     54  C   UNL     1       6.592  -3.599 -36.951  0.00  0.00    +0.010 A 
ATOM     55  C   UNL     1       6.491  -4.975 -36.860  0.00  0.00    +0.010 A 
ATOM     56  C   UNL     1       6.272  -5.572 -35.633  0.00  0.00    +0.010 A 
ATOM     57  C   UNL     1       6.159  -4.795 -34.496  0.00  0.00    +0.030 A 
ENDBRANCH  51  52
ENDBRANCH  50  51
ENDBRANCH  10  50
TORSDOF 16
ENDMDL
MODEL 9
REMARK VINA RESULT:      -7.3     17.468     21.848
REMARK  Name = ZINC000008214500
REMARK  16 active torsions:
REMARK  status: ('A' for Active; 'I' for Inactive)
REMARK    1  A    between atoms: C3_3  and  O4_4
REMARK    2  A    between atoms: O4_4  and  C5_5
REMARK    3  A    between atoms: C5_5  and  C6_6
REMARK    4  A    between atoms: C12_12  and  C13_13
REMARK    5  A    between atoms: C16_16  and  O17_17
REMARK    6  A    between atoms: O17_17  and  C18_18
REMARK    7  A    between atoms: C18_18  and  C19_19
REMARK    8  A    between atoms: C25_25  and  O26_26
REMARK    9  A    between atoms: O26_26  and  C27_27
REMARK   10  A    between atoms: C27_27  and  C28_28
REMARK   11  A    between atoms: C38_38  and  O39_39
REMARK   12  A    between atoms: O39_39  and  C40_40
REMARK   13  A    between atoms: C40_40  and  C41_41
REMARK   14  A    between atoms: C48_48  and  O49_49
REMARK   15  A    between atoms: O49_49  and  C50_50
REMARK   16  A    between atoms: C50_50  and  C51_51
REMARK                            x       y       z     vdW  Elec       q    Type
REMARK                         _______ _______ _______ _____ _____    ______ ____
ROOT
ATOM      1  O   UNL     1      -0.180  -6.309 -28.700  0.00  0.00    -0.440 OA
ATOM      2  C   UNL     1       0.124  -5.140 -28.881  0.00  0.00    +0.410 A 
ATOM      3  C   UNL     1       1.066  -4.768 -29.874  0.00  0.00    -0.070 A 
ATOM      4  C   UNL     1       1.376  -3.453 -30.045  0.00  0.00    +0.170 A 
ATOM      5  O   UNL     1       0.821  -2.480 -29.304  0.00  0.00    -0.200 OA
ATOM      6  C   UNL     1      -0.085  -2.736 -28.336  0.00  0.00    +0.230 A 
ATOM      7  C   UNL     1      -0.638  -1.707 -27.592  0.00  0.00    -0.130 A 
ATOM      8  C   UNL     1      -1.567  -1.986 -26.602  0.00  0.00    +0.240 A 
ATOM      9  C   UNL     1      -1.956  -3.296 -26.345  0.00  0.00    -0.130 A 
ATOM     10  C   UNL     1      -1.415  -4.337 -27.076  0.00  0.00    +0.260 A 
ATOM     11  C   UNL     1      -0.480  -4.061 -28.082  0.00  0.00    -0.290 A 
ENDROOT
BRANCH   4  12
ATOM     12  C   UNL     1       2.358  -3.084 -31.081  0.00  0.00    -0.070 A 
ATOM     13  C   UNL     1       3.726  -3.137 -30.801  0.00  0.00    +0.090 A 
ATOM     14  C   UNL     1       4.642  -2.792 -31.771  0.00  0.00    -0.040 A 
ATOM     15  C   UNL     1       4.210  -2.390 -33.027  0.00  0.00    +0.130 A 
ATOM     16  C   UNL     1       2.847  -2.334 -33.314  0.00  0.00    +0.100 A 
ATOM     17  C   UNL     1       1.923  -2.685 -32.349  0.00  0.00    +0.000 A 
BRANCH  16  18
ATOM     18  O   UNL     1       2.427  -1.940 -34.546  0.00  0.00    -0.290 OA
BRANCH  18  19
ATOM     19  C   UNL     1       1.055  -1.562 -34.673  0.00  0.00    +0.240 C 
BRANCH  19  20
ATOM     20  C   UNL     1       0.321  -2.602 -35.481  0.00  0.00    -0.100 A 
ATOM     21  C   UNL     1       0.763  -2.931 -36.749  0.00  0.00    +0.030 A 
ATOM     22  C   UNL     1       0.089  -3.885 -37.489  0.00  0.00    +0.010 A 
ATOM     23  C   UNL     1      -1.026  -4.508 -36.961  0.00  0.00    +0.010 A 
ATOM     24  C   UNL     1      -1.467  -4.180 -35.693  0.00  0.00    +0.010 A 
ATOM     25  C   UNL     1      -0.791  -3.229 -34.951  0.00  0.00    +0.030 A 
ENDBRANCH  19  20
ENDBRANCH  18  19
ENDBRANCH  16  18
BRANCH  15  26
ATOM     26  O   UNL     1       5.118  -2.051 -33.979  0.00  0.00    -0.290 OA
BRANCH  26  27
ATOM     27  C   UNL     1       6.475  -2.435 -33.748  0.00  0.00    +0.240 C 
BRANCH  27  28
ATOM     28  C   UNL     1       7.072  -2.962 -35.028  0.00  0.00    -0.100 A 
ATOM     29  C   UNL     1       6.259  -3.211 -36.119  0.00  0.00    +0.030 A 
ATOM     30  C   UNL     1       6.806  -3.694 -37.292  0.00  0.00    +0.010 A 
ATOM     31  C   UNL     1       8.166  -3.929 -37.376  0.00  0.00    +0.010 A 
ATOM     32  C   UNL     1       8.978  -3.679 -36.287  0.00  0.00    +0.010 A 
ATOM     33  C   UNL     1       8.432  -3.192 -35.114  0.00  0.00    +0.030 A 
ENDBRANCH  27  28
ENDBRANCH  26  27
ENDBRANCH  15  26
ENDBRANCH   4  12
BRANCH   8  34
ATOM     34  O   UNL     1      -2.104  -0.972 -25.877  0.00  0.00    -0.290 OA
BRANCH  34  35
ATOM     35  C   UNL     1      -1.434  -0.614 -24.667  0.00  0.00    +0.260 C 
BRANCH  35  36
ATOM     36  C   UNL     1      -2.328  -0.912 -23.491  0.00  0.00    -0.100 A 
ATOM     37  C   UNL     1      -3.660  -1.219 -23.695  0.00  0.00    +0.040 A 
ATOM     38  C   UNL     1      -4.479  -1.493 -22.616  0.00  0.00    +0.010 A 
ATOM     39  C   UNL     1      -3.967  -1.459 -21.333  0.00  0.00    +0.020 A 
ATOM     40  C   UNL     1      -2.634  -1.153 -21.129  0.00  0.00    +0.010 A 
ATOM     41  C   UNL     1      -1.814  -0.884 -22.208  0.00  0.00    +0.040 A 
ENDBRANCH  35  36
ENDBRANCH  34  35
ENDBRANCH   8  34
BRANCH   3  42
ATOM     42  O   UNL     1       1.655  -5.719 -30.650  0.00  0.00    -0.290 OA
BRANCH  42  43
ATOM     43  C   UNL     1       1.004  -6.048 -31.879  0.00  0.00    +0.240 C 
BRANCH  43  44
ATOM     44  C   UNL     1       2.007  -6.016 -33.004  0.00  0.00    -0.090 A 
ATOM     45  C   UNL     1       3.353  -6.178 -32.733  0.00  0.00    +0.040 A 
ATOM     46  C   UNL     1       4.273  -6.150 -33.765  0.00  0.00    +0.000 A 
ATOM     47  C   UNL     1       3.847  -5.958 -35.065  0.00  0.00    +0.010 A 
ATOM     48  C   UNL     1       2.501  -5.796 -35.335  0.00  0.00    +0.000 A 
ATOM     49  C   UNL     1       1.580  -5.830 -34.304  0.00  0.00    +0.030 A 
ENDBRANCH  43  44
ENDBRANCH  42  43
ENDBRANCH   3  42
BRANCH  10  50
ATOM     50  O   UNL     1      -1.793  -5.617 -26.827  0.00  0.00    -0.270 OA
BRANCH  50  51
ATOM     51  C   UNL     1      -2.997  -5.804 -26.080  0.00  0.00    +0.250 C 
BRANCH  51  52
ATOM     52  C   UNL     1      -4.176  -5.802 -27.020  0.00  0.00    -0.100 A 
ATOM     53  C   UNL     1      -4.009  -6.184 -28.338  0.00  0.00    +0.030 A 
ATOM     54  C   UNL     1      -5.089  -6.182 -29.200  0.00  0.00    +0.010 A 
ATOM     55  C   UNL     1      -6.337  -5.799 -28.743  0.00  0.00    +0.010 A 
ATOM     56  C   UNL     1      -6.504  -5.419 -27.425  0.00  0.00    +0.010 A 
ATOM     57  C   UNL     1      -5.425  -5.425 -26.562  0.00  0.00    +0.030 A 
ENDBRANCH  51  52
ENDBRANCH  50  51
ENDBRANCH  10  50
TORSDOF 16
ENDMDL
