REMARK  Name = ZINC000008214500
REMARK  16 active torsions:
REMARK  status: ('A' for Active; 'I' for Inactive)
REMARK    1  A    between atoms: C3_3  and  O4_4
REMARK    2  A    between atoms: O4_4  and  C5_5
REMARK    3  A    between atoms: C5_5  and  C6_6
REMARK    4  A    between atoms: C12_12  and  C13_13
REMARK    5  A    between atoms: C16_16  and  O17_17
REMARK    6  A    between atoms: O17_17  and  C18_18
REMARK    7  A    between atoms: C18_18  and  C19_19
REMARK    8  A    between atoms: C25_25  and  O26_26
REMARK    9  A    between atoms: O26_26  and  C27_27
REMARK   10  A    between atoms: C27_27  and  C28_28
REMARK   11  A    between atoms: C38_38  and  O39_39
REMARK   12  A    between atoms: O39_39  and  C40_40
REMARK   13  A    between atoms: C40_40  and  C41_41
REMARK   14  A    between atoms: C48_48  and  O49_49
REMARK   15  A    between atoms: O49_49  and  C50_50
REMARK   16  A    between atoms: C50_50  and  C51_51
REMARK                            x       y       z     vdW  Elec       q    Type
REMARK                         _______ _______ _______ _____ _____    ______ ____
ROOT
ATOM      1  O   UNL     1      -0.112   0.008  -0.295  0.00  0.00    -0.440 OA
ATOM      2  C   UNL     1      -0.080   1.221  -0.158  0.00  0.00    +0.410 A 
ATOM      3  C   UNL     1      -1.272   1.981  -0.036  0.00  0.00    -0.070 A 
ATOM      4  C   UNL     1      -1.193   3.332   0.117  0.00  0.00    +0.170 A 
ATOM      5  O   UNL     1      -0.019   3.985   0.158  0.00  0.00    -0.200 OA
ATOM      6  C   UNL     1       1.166   3.348   0.050  0.00  0.00    +0.230 A 
ATOM      7  C   UNL     1       2.357   4.054   0.098  0.00  0.00    -0.130 A 
ATOM      8  C   UNL     1       3.566   3.385  -0.014  0.00  0.00    +0.240 A 
ATOM      9  C   UNL     1       3.600   2.004  -0.173  0.00  0.00    -0.130 A 
ATOM     10  C   UNL     1       2.422   1.282  -0.223  0.00  0.00    +0.260 A 
ATOM     11  C   UNL     1       1.197   1.951  -0.105  0.00  0.00    -0.290 A 
ENDROOT
BRANCH   4  12
ATOM     12  C   UNL     1      -2.441   4.107   0.242  0.00  0.00    -0.070 A 
ATOM     13  C   UNL     1      -3.440   3.688   1.125  0.00  0.00    +0.090 A 
ATOM     14  C   UNL     1      -4.606   4.414   1.241  0.00  0.00    -0.040 A 
ATOM     15  C   UNL     1      -4.792   5.561   0.482  0.00  0.00    +0.130 A 
ATOM     16  C   UNL     1      -3.800   5.985  -0.401  0.00  0.00    +0.100 A 
ATOM     17  C   UNL     1      -2.626   5.266  -0.518  0.00  0.00    +0.000 A 
BRANCH  16  18
ATOM     18  O   UNL     1      -3.985   7.109  -1.143  0.00  0.00    -0.290 OA
BRANCH  18  19
ATOM     19  C   UNL     1      -2.927   7.485  -2.027  0.00  0.00    +0.240 C 
BRANCH  19  20
ATOM     20  C   UNL     1      -3.309   8.745  -2.760  0.00  0.00    -0.100 A 
ATOM     21  C   UNL     1      -3.984   8.667  -3.964  0.00  0.00    +0.030 A 
ATOM     22  C   UNL     1      -4.334   9.823  -4.636  0.00  0.00    +0.010 A 
ATOM     23  C   UNL     1      -4.009  11.057  -4.104  0.00  0.00    +0.010 A 
ATOM     24  C   UNL     1      -3.336  11.135  -2.900  0.00  0.00    +0.010 A 
ATOM     25  C   UNL     1      -2.989   9.979  -2.226  0.00  0.00    +0.030 A 
ENDBRANCH  19  20
ENDBRANCH  18  19
ENDBRANCH  16  18
BRANCH  15  26
ATOM     26  O   UNL     1      -5.943   6.273   0.600  0.00  0.00    -0.290 OA
BRANCH  26  27
ATOM     27  C   UNL     1      -6.917   5.782   1.524  0.00  0.00    +0.240 C 
BRANCH  27  28
ATOM     28  C   UNL     1      -8.117   6.694   1.519  0.00  0.00    -0.100 A 
ATOM     29  C   UNL     1      -8.170   7.771   2.384  0.00  0.00    +0.030 A 
ATOM     30  C   UNL     1      -9.271   8.607   2.380  0.00  0.00    +0.010 A 
ATOM     31  C   UNL     1     -10.319   8.366   1.511  0.00  0.00    +0.010 A 
ATOM     32  C   UNL     1     -10.265   7.290   0.646  0.00  0.00    +0.010 A 
ATOM     33  C   UNL     1      -9.163   6.456   0.647  0.00  0.00    +0.030 A 
ENDBRANCH  27  28
ENDBRANCH  26  27
ENDBRANCH  15  26
ENDBRANCH   4  12
BRANCH   8  34
ATOM     34  O   UNL     1       4.729   4.084   0.034  0.00  0.00    -0.290 OA
BRANCH  34  35
ATOM     35  C   UNL     1       4.628   5.500   0.199  0.00  0.00    +0.260 C 
BRANCH  35  36
ATOM     36  C   UNL     1       6.009   6.102   0.229  0.00  0.00    -0.100 A 
ATOM     37  C   UNL     1       6.679   6.236   1.431  0.00  0.00    +0.040 A 
ATOM     38  C   UNL     1       7.946   6.788   1.458  0.00  0.00    +0.010 A 
ATOM     39  C   UNL     1       8.543   7.206   0.284  0.00  0.00    +0.020 A 
ATOM     40  C   UNL     1       7.874   7.071  -0.918  0.00  0.00    +0.010 A 
ATOM     41  C   UNL     1       6.609   6.515  -0.946  0.00  0.00    +0.040 A 
ENDBRANCH  35  36
ENDBRANCH  34  35
ENDBRANCH   8  34
BRANCH   3  42
ATOM     42  O   UNL     1      -2.485   1.364  -0.071  0.00  0.00    -0.290 OA
BRANCH  42  43
ATOM     43  C   UNL     1      -2.862   0.744  -1.302  0.00  0.00    +0.240 C 
BRANCH  43  44
ATOM     44  C   UNL     1      -4.274   0.228  -1.193  0.00  0.00    -0.090 A 
ATOM     45  C   UNL     1      -4.507  -1.056  -0.736  0.00  0.00    +0.040 A 
ATOM     46  C   UNL     1      -5.802  -1.529  -0.635  0.00  0.00    +0.000 A 
ATOM     47  C   UNL     1      -6.863  -0.719  -0.992  0.00  0.00    +0.010 A 
ATOM     48  C   UNL     1      -6.630   0.565  -1.449  0.00  0.00    +0.000 A 
ATOM     49  C   UNL     1      -5.335   1.040  -1.545  0.00  0.00    +0.030 A 
ENDBRANCH  43  44
ENDBRANCH  42  43
ENDBRANCH   3  42
BRANCH  10  50
ATOM     50  O   UNL     1       2.453  -0.066  -0.378  0.00  0.00    -0.270 OA
BRANCH  50  51
ATOM     51  C   UNL     1       3.740  -0.678  -0.485  0.00  0.00    +0.250 C 
BRANCH  51  52
ATOM     52  C   UNL     1       3.576  -2.167  -0.652  0.00  0.00    -0.100 A 
ATOM     53  C   UNL     1       3.529  -2.986   0.461  0.00  0.00    +0.030 A 
ATOM     54  C   UNL     1       3.379  -4.351   0.309  0.00  0.00    +0.010 A 
ATOM     55  C   UNL     1       3.275  -4.898  -0.957  0.00  0.00    +0.010 A 
ATOM     56  C   UNL     1       3.321  -4.079  -2.069  0.00  0.00    +0.010 A 
ATOM     57  C   UNL     1       3.467  -2.713  -1.917  0.00  0.00    +0.030 A 
ENDBRANCH  51  52
ENDBRANCH  50  51
ENDBRANCH  10  50
TORSDOF 16
