REMARK  Name = ZINC000014210455
REMARK  18 active torsions:
REMARK  status: ('A' for Active; 'I' for Inactive)
REMARK    1  A    between atoms: C1_1  and  C2_2
REMARK    2  A    between atoms: C2_2  and  C3_3
REMARK    3  A    between atoms: C2_2  and  C4_4
REMARK    4  A    between atoms: C2_2  and  N5_5
REMARK    5  A    between atoms: N8_8  and  C9_9
REMARK    6  A    between atoms: C9_9  and  C11_11
REMARK    7  A    between atoms: C9_9  and  C39_39
REMARK    8  A    between atoms: C19_19  and  C21_21
REMARK    9  A    between atoms: N23_23  and  C24_24
REMARK   10  A    between atoms: C24_24  and  C26_26
REMARK   11  A    between atoms: C24_24  and  C31_31
REMARK   12  A    between atoms: C26_26  and  C27_27
REMARK   13  A    between atoms: C31_31  and  C33_33
REMARK   14  A    between atoms: C36_36  and  C37_37
REMARK   15  A    between atoms: C36_36  and  C38_38
REMARK   16  A    between atoms: C39_39  and  C40_40
REMARK   17  A    between atoms: C39_39  and  C41_41
REMARK   18  A    between atoms: C39_39  and  C42_42
REMARK                            x       y       z     vdW  Elec       q    Type
REMARK                         _______ _______ _______ _____ _____    ______ ____
ROOT
ATOM      1  C   UNL     1       4.551  -0.355  -4.254  0.00  0.00    +0.550 C 
ATOM      2  N   UNL     1       5.789   0.104  -4.523  0.00  0.00    -0.600 N 
ATOM      3  C   UNL     1       6.783   0.649  -3.569  0.00  0.00    +0.310 C 
ATOM      4  C   UNL     1       7.432   1.834  -4.317  0.00  0.00    -0.030 C 
ATOM      5  C   UNL     1       7.223   1.522  -5.814  0.00  0.00    -0.040 C 
ATOM      6  C   UNL     1       6.524   2.755  -5.134  0.00  0.00    -0.070 C 
ATOM      7  C   UNL     1       7.053   4.147  -5.485  0.00  0.00    +0.070 C 
ATOM      8  C   UNL     1       5.016   2.665  -4.892  0.00  0.00    +0.060 C 
ATOM      9  C   UNL     1       6.468   0.171  -5.838  0.00  0.00    +0.260 C 
ATOM     10  O   UNL     1       3.888  -0.862  -5.134  0.00  0.00    -0.530 OA
ENDROOT
BRANCH   9  11
ATOM     11  C   UNL     1       7.439  -0.970  -5.999  0.00  0.00    +0.520 C 
ATOM     12  N   UNL     1       7.927  -1.272  -7.219  0.00  0.00    -0.710 N 
ATOM     13  H   UNL     1       7.653  -0.755  -7.992  0.00  0.00    +0.410 HD
ATOM     14  O   UNL     1       7.782  -1.616  -5.032  0.00  0.00    -0.520 OA
BRANCH  12  15
ATOM     15  C   UNL     1       8.871  -2.382  -7.375  0.00  0.00    +0.250 C 
BRANCH  15  16
ATOM     16  C   UNL     1      10.270  -1.895  -7.096  0.00  0.00    +0.340 C 
ATOM     17  O   UNL     1      10.501  -0.710  -7.064  0.00  0.00    -0.410 OA
BRANCH  16  18
ATOM     18  C   UNL     1      11.367  -2.875  -6.858  0.00  0.00    +0.480 C 
ATOM     19  O   UNL     1      11.134  -4.066  -6.890  0.00  0.00    -0.500 OA
ATOM     20  N   UNL     1      12.617  -2.440  -6.608  0.00  0.00    -0.830 N 
ATOM     21  H   UNL     1      13.331  -3.078  -6.453  0.00  0.00    +0.410 HD
ATOM     22  H   UNL     1      12.804  -1.488  -6.582  0.00  0.00    +0.410 HD
ENDBRANCH  16  18
ENDBRANCH  15  16
BRANCH  15  23
ATOM     23  C   UNL     1       8.794  -2.918  -8.806  0.00  0.00    +0.070 C 
BRANCH  23  24
ATOM     24  C   UNL     1       7.412  -3.526  -9.050  0.00  0.00    -0.010 C 
ATOM     25  C   UNL     1       6.367  -2.506  -9.534  0.00  0.00    +0.010 C 
ATOM     26  C   UNL     1       5.858  -3.599 -10.489  0.00  0.00    +0.010 C 
ATOM     27  C   UNL     1       7.270  -4.204 -10.423  0.00  0.00    +0.010 C 
ENDBRANCH  23  24
ENDBRANCH  15  23
ENDBRANCH  12  15
ENDBRANCH   9  11
BRANCH   1  28
ATOM     28  C   UNL     1       3.990  -0.237  -2.860  0.00  0.00    +0.280 C 
BRANCH  28  32
ATOM     29  N   UNL     1       0.549   0.727  -1.992  0.00  0.00    -0.740 N 
ATOM     30  H   UNL     1       0.058   0.405  -2.764  0.00  0.00    +0.390 HD
ATOM     31  C   UNL     1       1.885   0.559  -1.925  0.00  0.00    +0.710 C 
ATOM     32  N   UNL     1       2.538  -0.055  -2.932  0.00  0.00    -0.730 N 
ATOM     33  H   UNL     1       2.046  -0.376  -3.704  0.00  0.00    +0.400 HD
ATOM     34  O   UNL     1       2.501   0.962  -0.958  0.00  0.00    -0.580 OA
BRANCH  29  36
ATOM     35  C   UNL     1       0.383   2.815  -0.729  0.00  0.00    +0.030 C 
ATOM     36  C   UNL     1      -0.160   1.394  -0.897  0.00  0.00    +0.190 C 
ATOM     37  C   UNL     1      -1.655   1.454  -1.220  0.00  0.00    +0.030 C 
ATOM     38  C   UNL     1       0.050   0.611   0.400  0.00  0.00    +0.030 C 
ENDBRANCH  29  36
ENDBRANCH  28  32
BRANCH  28  39
ATOM     39  C   UNL     1       4.306  -1.511  -2.074  0.00  0.00    -0.070 C 
ATOM     40  C   UNL     1       3.851  -1.340  -0.623  0.00  0.00    +0.040 C 
ATOM     41  C   UNL     1       5.813  -1.771  -2.109  0.00  0.00    +0.040 C 
ATOM     42  C   UNL     1       3.569  -2.695  -2.703  0.00  0.00    +0.040 C 
ENDBRANCH  28  39
ENDBRANCH   1  28
TORSDOF 10
