@<TRIPOS>MOLECULE
ZINC000014210455
82    84    1     0     0
SMALL
USER_CHARGES
@<TRIPOS>ATOM
1      C1      0.3826    2.8147   -0.7289 C.3      1 ZINC000014210455   -0.1600
2      C2     -0.1602    1.3941   -0.8973 C.3      1 ZINC000014210455    0.1900
3      C3      0.0503    0.6106    0.3999 C.3      1 ZINC000014210455   -0.1600
4      C4     -1.6546    1.4541   -1.2201 C.3      1 ZINC000014210455   -0.1600
5      N5      0.5494    0.7267   -1.9915 N.am     1 ZINC000014210455   -0.7400
6      C6      1.8851    0.5592   -1.9254 C.2      1 ZINC000014210455    0.7100
7      O7      2.5011    0.9620   -0.9576 O.2      1 ZINC000014210455   -0.5800
8      N8      2.5379   -0.0548   -2.9320 N.am     1 ZINC000014210455   -0.7300
9      C9      3.9897   -0.2369   -2.8602 C.3      1 ZINC000014210455    0.1700
10     H10     4.4390    0.6204   -2.3588 H        1 ZINC000014210455    0.1100
11     C11     4.5508   -0.3546   -4.2539 C.2      1 ZINC000014210455    0.5500
12     O12     3.8879   -0.8619   -5.1336 O.2      1 ZINC000014210455   -0.5300
13     N13     5.7894    0.1040   -4.5226 N.am     1 ZINC000014210455   -0.6000
14     C14     6.7833    0.6493   -3.5690 C.3      1 ZINC000014210455    0.1200
15     C15     7.4319    1.8339   -4.3172 C.3      1 ZINC000014210455   -0.1600
16     H16     8.3800    2.2137   -3.9365 H        1 ZINC000014210455    0.1300
17     C17     7.2225    1.5224   -5.8137 C.3      1 ZINC000014210455   -0.1700
18     H18     8.0099    1.6839   -6.5499 H        1 ZINC000014210455    0.1300
19     C19     6.4681    0.1710   -5.8377 C.3      1 ZINC000014210455    0.1500
20     H20     5.7331    0.1603   -6.6426 H        1 ZINC000014210455    0.1100
21     C21     7.4391   -0.9701   -5.9992 C.2      1 ZINC000014210455    0.5200
22     O22     7.7815   -1.6164   -5.0317 O.2      1 ZINC000014210455   -0.5200
23     N23     7.9271   -1.2723   -7.2186 N.am     1 ZINC000014210455   -0.7100
24     C24     8.8711   -2.3816   -7.3755 C.3      1 ZINC000014210455    0.1200
25     H25     8.6165   -3.1772   -6.6752 H        1 ZINC000014210455    0.1300
26     C26     8.7945   -2.9179   -8.8064 C.3      1 ZINC000014210455   -0.1100
27     C27     7.4117   -3.5256   -9.0500 C.3      1 ZINC000014210455   -0.1100
28     C28     6.3672   -2.5060   -9.5339 C.3      1 ZINC000014210455   -0.1400
29     C29     5.8580   -3.5988  -10.4885 C.3      1 ZINC000014210455   -0.1400
30     C30     7.2701   -4.2041  -10.4227 C.3      1 ZINC000014210455   -0.1400
31     C31    10.2695   -1.8946   -7.0957 C.2      1 ZINC000014210455    0.3400
32     O32    10.5012   -0.7096   -7.0640 O.2      1 ZINC000014210455   -0.4100
33     C33    11.3668   -2.8754   -6.8580 C.2      1 ZINC000014210455    0.4800
34     N34    12.6175   -2.4398   -6.6078 N.am     1 ZINC000014210455   -0.8300
35     O35    11.1339   -4.0661   -6.8898 O.2      1 ZINC000014210455   -0.5000
36     C36     6.5238    2.7549   -5.1344 C.3      1 ZINC000014210455   -0.0700
37     C37     5.0158    2.6652   -4.8919 C.3      1 ZINC000014210455   -0.1300
38     C38     7.0527    4.1470   -5.4853 C.3      1 ZINC000014210455   -0.1200
39     C39     4.3057   -1.5108   -2.0739 C.3      1 ZINC000014210455   -0.0700
40     C40     3.5687   -2.6946   -2.7034 C.3      1 ZINC000014210455   -0.1400
41     C41     5.8129   -1.7712   -2.1091 C.3      1 ZINC000014210455   -0.1500
42     C42     3.8513   -1.3404   -0.6229 C.3      1 ZINC000014210455   -0.1300
43     H43     1.4472    2.7719   -0.4989 H        1 ZINC000014210455    0.0800
44     H44     0.2326    3.3728   -1.6531 H        1 ZINC000014210455    0.0500
45     H45    -0.1454    3.3112    0.0852 H        1 ZINC000014210455    0.0600
46     H46    -0.4777    1.1072    1.2141 H        1 ZINC000014210455    0.0600
47     H47    -0.3364   -0.4014    0.2800 H        1 ZINC000014210455    0.0500
48     H48     1.1149    0.5679    0.6299 H        1 ZINC000014210455    0.0800
49     H49    -1.8045    2.0122   -2.1442 H        1 ZINC000014210455    0.0600
50     H50    -2.0412    0.4420   -1.3400 H        1 ZINC000014210455    0.0600
51     H51    -2.1825    1.9506   -0.4060 H        1 ZINC000014210455    0.0700
52     H52     0.0579    0.4054   -2.7636 H        1 ZINC000014210455    0.3900
53     H53     2.0464   -0.3761   -3.7041 H        1 ZINC000014210455    0.4000
54     H54     6.2888    0.9975   -2.6622 H        1 ZINC000014210455    0.0900
55     H55     7.5329   -0.1046   -3.3286 H        1 ZINC000014210455    0.1000
56     H56     7.6532   -0.7554   -7.9923 H        1 ZINC000014210455    0.4100
57     H57     8.9618   -2.1021   -9.5096 H        1 ZINC000014210455    0.0800
58     H58     9.5578   -3.6828   -8.9490 H        1 ZINC000014210455    0.1000
59     H59     7.0688   -4.1435   -8.2201 H        1 ZINC000014210455    0.1000
60     H60     5.6448   -2.2240   -8.7680 H        1 ZINC000014210455    0.0700
61     H61     6.8004   -1.6465  -10.0455 H        1 ZINC000014210455    0.0800
62     H62     5.0889   -4.2361  -10.0521 H        1 ZINC000014210455    0.0800
63     H63     5.5888   -3.2249  -11.4764 H        1 ZINC000014210455    0.0700
64     H64     7.9502   -3.8089  -11.1773 H        1 ZINC000014210455    0.0800
65     H65     7.2766   -5.2930  -10.3743 H        1 ZINC000014210455    0.0700
66     H66    12.8036   -1.4882   -6.5823 H        1 ZINC000014210455    0.4100
67     H67    13.3314   -3.0780   -6.4531 H        1 ZINC000014210455    0.4100
68     H68     4.8023    1.8175   -4.2408 H        1 ZINC000014210455    0.0700
69     H69     4.6688    3.5836   -4.4183 H        1 ZINC000014210455    0.0600
70     H70     4.5021    2.5307   -5.8438 H        1 ZINC000014210455    0.0600
71     H71     6.9532    4.3138   -6.5579 H        1 ZINC000014210455    0.0600
72     H72     6.4789    4.9004   -4.9456 H        1 ZINC000014210455    0.0700
73     H73     8.1030    4.2186   -5.2024 H        1 ZINC000014210455    0.0600
74     H74     3.8924   -2.8160   -3.7372 H        1 ZINC000014210455    0.0600
75     H75     3.7938   -3.6022   -2.1433 H        1 ZINC000014210455    0.0600
76     H76     2.4949   -2.5091   -2.6783 H        1 ZINC000014210455    0.0600
77     H77     6.3394   -0.9165   -1.6845 H        1 ZINC000014210455    0.0600
78     H78     6.0410   -2.6642   -1.5272 H        1 ZINC000014210455    0.0600
79     H79     6.1322   -1.9186   -3.1409 H        1 ZINC000014210455    0.0700
80     H80     2.7775   -1.1549   -0.5978 H        1 ZINC000014210455    0.0600
81     H81     4.0764   -2.2480   -0.0627 H        1 ZINC000014210455    0.0500
82     H82     4.3764   -0.4970   -0.1744 H        1 ZINC000014210455    0.0600
@<TRIPOS>BOND
1     1     2     1
2     1     43    1
3     1     44    1
4     1     45    1
5     2     3     1
6     2     4     1
7     2     5     1
8     3     46    1
9     3     47    1
10    3     48    1
11    4     49    1
12    4     50    1
13    4     51    1
14    5     6     am
15    5     52    1
16    6     7     2
17    6     8     am
18    8     9     1
19    8     53    1
20    9     10    1
21    9     11    1
22    9     39    1
23    11    12    2
24    11    13    am
25    13    19    1
26    13    14    1
27    14    15    1
28    14    54    1
29    14    55    1
30    15    16    1
31    15    36    1
32    15    17    1
33    17    18    1
34    17    19    1
35    17    36    1
36    19    20    1
37    19    21    1
38    21    22    2
39    21    23    am
40    23    24    1
41    23    56    1
42    24    25    1
43    24    26    1
44    24    31    1
45    26    27    1
46    26    57    1
47    26    58    1
48    27    30    1
49    27    28    1
50    27    59    1
51    28    29    1
52    28    60    1
53    28    61    1
54    29    30    1
55    29    62    1
56    29    63    1
57    30    64    1
58    30    65    1
59    31    32    2
60    31    33    1
61    33    34    am
62    33    35    2
63    34    66    1
64    34    67    1
65    36    37    1
66    36    38    1
67    37    68    1
68    37    69    1
69    37    70    1
70    38    71    1
71    38    72    1
72    38    73    1
73    39    40    1
74    39    41    1
75    39    42    1
76    40    74    1
77    40    75    1
78    40    76    1
79    41    77    1
80    41    78    1
81    41    79    1
82    42    80    1
83    42    81    1
84    42    82    1
@<TRIPOS>SUBSTRUCTURE
1   ZINC000014210455 1     RESIDUE    1   A     ZIN   1
