@<TRIPOS>MOLECULE
ZINC000053683151
83    89    1     0     0
SMALL
USER_CHARGES
@<TRIPOS>ATOM
1      C1     -0.1090   -2.5068    2.2794 C.3      1 ZINC000053683151   -0.1500
2      C2      1.2862   -1.8843    2.3627 C.3      1 ZINC000053683151   -0.1000
3      C3      2.1954   -2.5282    1.3140 C.3      1 ZINC000053683151   -0.1400
4      C4      1.1900   -0.3801    2.0999 C.3      1 ZINC000053683151   -0.1100
5      C5      0.3640    0.2791    3.2062 C.3      1 ZINC000053683151    0.1600
6      H6     -0.5996   -0.2235    3.2894 H        1 ZINC000053683151    0.1300
7      C7      1.1008    0.1726    4.5147 C.2      1 ZINC000053683151    0.5300
8      O8      1.2036   -0.9086    5.0545 O.2      1 ZINC000053683151   -0.5100
9      N9      1.6447    1.2518    5.0934 N.am     1 ZINC000053683151   -0.6100
10     C10     2.5713    1.2414    6.2409 C.3      1 ZINC000053683151    0.1000
11     C11     3.4297    2.5171    6.1370 C.3      1 ZINC000053683151   -0.1400
12     C12     2.9034    3.2538    4.8819 C.3      1 ZINC000053683151   -0.1200
13     C13     1.4868    2.6607    4.7087 C.3      1 ZINC000053683151    0.1600
14     H14     0.7912    3.1554    5.3865 H        1 ZINC000053683151    0.1100
15     C15     1.0136    2.8185    3.2774 C.3      1 ZINC000053683151    0.4600
16     O16     2.1440    2.8779    2.4051 O.3      1 ZINC000053683151   -0.5400
17     O17     0.2511    4.0258    3.1251 O.3      1 ZINC000053683151   -0.3100
18     C18    -0.7106    3.7096    2.0997 C.3      1 ZINC000053683151    0.3100
19     N19    -0.1883    4.0780    0.7814 N.am     1 ZINC000053683151   -0.7300
20     C20     0.3956    5.2790    0.5994 C.2      1 ZINC000053683151    0.5300
21     O21     0.5853    6.0110    1.5476 O.2      1 ZINC000053683151   -0.4900
22     C22     0.8129    5.7123   -0.7823 C.3      1 ZINC000053683151   -0.0700
23     H23    -0.0589    5.7443   -1.4358 H        1 ZINC000053683151    0.1200
24     C24     1.8242    4.7435   -1.3335 C.2      1 ZINC000053683151   -0.1400
25     C25     2.8138    5.1413   -2.1131 C.2      1 ZINC000053683151   -0.0500
26     C26     3.7807    4.1452   -2.6139 C.ar     1 ZINC000053683151    0.0000
27     C27     4.4464    4.5288   -3.7969 C.ar     1 ZINC000053683151   -0.1300
28     C28     5.4179    3.7765   -4.4632 C.ar     1 ZINC000053683151    0.1300
29     C29     5.7491    2.5356   -3.9211 C.ar     1 ZINC000053683151   -0.1200
30     C30     5.0908    2.1456   -2.7603 C.ar     1 ZINC000053683151   -0.0900
31     C31     4.1299    2.9141   -2.1070 C.ar     1 ZINC000053683151   -0.1200
32     N32     5.7896    4.5356   -5.5322 N.pl3    1 ZINC000053683151   -0.5800
33     C33     5.0747    5.7233   -5.5538 C.2      1 ZINC000053683151    0.0700
34     Br34    5.2644    7.0753   -6.8623 Br       1 ZINC000053683151    0.0100
35     C35     4.2360    5.7756   -4.5228 C.2      1 ZINC000053683151   -0.1100
36     C36     3.2137    6.7652   -4.0279 C.3      1 ZINC000053683151   -0.0300
37     C37     3.0139    6.5778   -2.5177 C.3      1 ZINC000053683151    0.1400
38     H38     3.9305    6.9125   -2.0321 H        1 ZINC000053683151    0.0500
39     N39     1.9443    7.4516   -2.0530 N.3      1 ZINC000053683151   -0.5500
40     C40     2.3535    8.8613   -2.1114 C.3      1 ZINC000053683151    0.0300
41     C41     1.4588    7.1008   -0.7148 C.3      1 ZINC000053683151    0.0800
42     C42    -2.0312    4.4339    2.3684 C.3      1 ZINC000053683151   -0.0800
43     C43    -1.7688    5.9335    2.5202 C.3      1 ZINC000053683151   -0.1400
44     C44    -2.9886    4.1995    1.1982 C.3      1 ZINC000053683151   -0.1500
45     C45    -0.9028    2.2108    2.1890 C.2      1 ZINC000053683151    0.5000
46     O46    -1.8278    1.5768    1.7272 O.2      1 ZINC000053683151   -0.4600
47     N47     0.1522    1.6920    2.8824 N.am     1 ZINC000053683151   -0.6400
48     H48    -0.5629   -2.2542    1.3212 H        1 ZINC000053683151    0.0500
49     H49    -0.0294   -3.5902    2.3693 H        1 ZINC000053683151    0.0600
50     H50    -0.7285   -2.1196    3.0883 H        1 ZINC000053683151    0.0500
51     H51     1.7009   -2.0538    3.3564 H        1 ZINC000053683151    0.0900
52     H52     1.7806   -2.3587    0.3203 H        1 ZINC000053683151    0.0500
53     H53     3.1893   -2.0847    1.3733 H        1 ZINC000053683151    0.0500
54     H54     2.2639   -3.5998    1.5012 H        1 ZINC000053683151    0.0600
55     H55     2.1910    0.0513    2.0876 H        1 ZINC000053683151    0.0800
56     H56     0.7091   -0.2096    1.1367 H        1 ZINC000053683151    0.0800
57     H57     2.0082    1.2466    7.1741 H        1 ZINC000053683151    0.0800
58     H58     3.2095    0.3588    6.1959 H        1 ZINC000053683151    0.0800
59     H59     3.2959    3.1368    7.0237 H        1 ZINC000053683151    0.0800
60     H60     4.4807    2.2572    6.0107 H        1 ZINC000053683151    0.0800
61     H61     2.8537    4.3285    5.0571 H        1 ZINC000053683151    0.0900
62     H62     3.5244    3.0309    4.0143 H        1 ZINC000053683151    0.1000
63     H63     1.9151    2.9788    1.4710 H        1 ZINC000053683151    0.3800
64     H64    -0.2629    3.4575    0.0396 H        1 ZINC000053683151    0.4100
65     H65     1.7389    3.6959   -1.0849 H        1 ZINC000053683151    0.1200
66     H66     6.4891    1.9008   -4.3857 H        1 ZINC000053683151    0.1300
67     H67     5.3404    1.1837   -2.3375 H        1 ZINC000053683151    0.1300
68     H68     3.6609    2.5454   -1.2067 H        1 ZINC000053683151    0.1200
69     H69     6.4600    4.2811   -6.1855 H        1 ZINC000053683151    0.4200
70     H70     3.5631    7.7786   -4.2255 H        1 ZINC000053683151    0.0800
71     H71     2.2677    6.5993   -4.5433 H        1 ZINC000053683151    0.0900
72     H72     2.5991    9.1260   -3.1399 H        1 ZINC000053683151    0.0700
73     H73     1.5369    9.4915   -1.7591 H        1 ZINC000053683151    0.0800
74     H74     3.2280    9.0123   -1.4786 H        1 ZINC000053683151    0.0300
75     H75     0.7205    7.8336   -0.3891 H        1 ZINC000053683151    0.0900
76     H76     2.2943    7.0820   -0.0151 H        1 ZINC000053683151    0.0500
77     H77    -2.4770    4.0484    3.2853 H        1 ZINC000053683151    0.0900
78     H78    -1.4630    6.3479    1.5596 H        1 ZINC000053683151    0.0600
79     H79    -2.6793    6.4295    2.8565 H        1 ZINC000053683151    0.0500
80     H80    -0.9772    6.0915    3.2527 H        1 ZINC000053683151    0.0700
81     H81    -3.2591    3.1445    1.1557 H        1 ZINC000053683151    0.0700
82     H82    -3.8876    4.7997    1.3384 H        1 ZINC000053683151    0.0700
83     H83    -2.5012    4.4874    0.2667 H        1 ZINC000053683151    0.0600
@<TRIPOS>BOND
1     1     2     1
2     1     48    1
3     1     49    1
4     1     50    1
5     2     3     1
6     2     4     1
7     2     51    1
8     3     52    1
9     3     53    1
10    3     54    1
11    4     5     1
12    4     55    1
13    4     56    1
14    5     6     1
15    5     47    1
16    5     7     1
17    7     8     2
18    7     9     am
19    9     13    1
20    9     10    1
21    10    11    1
22    10    57    1
23    10    58    1
24    11    12    1
25    11    59    1
26    11    60    1
27    12    13    1
28    12    61    1
29    12    62    1
30    13    14    1
31    13    15    1
32    15    47    1
33    15    16    1
34    15    17    1
35    16    63    1
36    17    18    1
37    18    19    1
38    18    42    1
39    18    45    1
40    19    20    am
41    19    64    1
42    20    21    2
43    20    22    1
44    22    23    1
45    22    41    1
46    22    24    1
47    24    25    2
48    24    65    1
49    25    37    1
50    25    26    1
51    26    31    ar
52    26    27    ar
53    27    35    1
54    27    28    ar
55    28    29    ar
56    28    32    1
57    29    30    ar
58    29    66    1
59    30    31    ar
60    30    67    1
61    31    68    1
62    32    33    1
63    32    69    1
64    33    34    1
65    33    35    2
66    35    36    1
67    36    37    1
68    36    70    1
69    36    71    1
70    37    38    1
71    37    39    1
72    39    40    1
73    39    41    1
74    40    72    1
75    40    73    1
76    40    74    1
77    41    75    1
78    41    76    1
79    42    43    1
80    42    44    1
81    42    77    1
82    43    78    1
83    43    79    1
84    43    80    1
85    44    81    1
86    44    82    1
87    44    83    1
88    45    46    2
89    45    47    am
@<TRIPOS>SUBSTRUCTURE
1   ZINC000053683151 1     RESIDUE    1   A     ZIN   1
