REMARK  Name = ZINC000053683151
REMARK  11 active torsions:
REMARK  status: ('A' for Active; 'I' for Inactive)
REMARK    1  A    between atoms: C1_1  and  C2_2
REMARK    2  A    between atoms: C2_2  and  C3_3
REMARK    3  A    between atoms: C2_2  and  C4_4
REMARK    4  A    between atoms: C4_4  and  C5_5
REMARK    5  A    between atoms: C15_15  and  O16_16
REMARK    6  A    between atoms: C18_18  and  N19_19
REMARK    7  A    between atoms: C18_18  and  C42_42
REMARK    8  A    between atoms: C20_20  and  C22_22
REMARK    9  A    between atoms: N39_39  and  C40_40
REMARK   10  A    between atoms: C42_42  and  C43_43
REMARK   11  A    between atoms: C42_42  and  C44_44
REMARK                            x       y       z     vdW  Elec       q    Type
REMARK                         _______ _______ _______ _____ _____    ______ ____
ROOT
ATOM      1  C   UNL     1       0.364   0.279   3.206  0.00  0.00    +0.290 C 
ATOM      2  C   UNL     1       1.101   0.173   4.515  0.00  0.00    +0.530 C 
ATOM      3  N   UNL     1       1.645   1.252   5.093  0.00  0.00    -0.610 N 
ATOM      4  C   UNL     1       2.571   1.241   6.241  0.00  0.00    +0.260 C 
ATOM      5  C   UNL     1       3.430   2.517   6.137  0.00  0.00    +0.020 C 
ATOM      6  C   UNL     1       2.903   3.254   4.882  0.00  0.00    +0.070 C 
ATOM      7  C   UNL     1       1.487   2.661   4.709  0.00  0.00    +0.270 C 
ATOM      8  C   UNL     1       1.014   2.818   3.277  0.00  0.00    +0.460 C 
ATOM      9  O   UNL     1       0.251   4.026   3.125  0.00  0.00    -0.310 OA
ATOM     10  C   UNL     1      -0.711   3.710   2.100  0.00  0.00    +0.310 C 
ATOM     11  C   UNL     1      -0.903   2.211   2.189  0.00  0.00    +0.500 C 
ATOM     12  O   UNL     1      -1.828   1.577   1.727  0.00  0.00    -0.460 OA
ATOM     13  O   UNL     1       1.204  -0.909   5.054  0.00  0.00    -0.510 OA
ATOM     14  N   UNL     1       0.152   1.692   2.882  0.00  0.00    -0.640 N 
ENDROOT
BRANCH  10  15
ATOM     15  N   UNL     1      -0.188   4.078   0.781  0.00  0.00    -0.730 N 
ATOM     16  H   UNL     1      -0.263   3.458   0.040  0.00  0.00    +0.410 HD
ATOM     17  C   UNL     1       0.396   5.279   0.599  0.00  0.00    +0.530 C 
ATOM     18  O   UNL     1       0.585   6.011   1.548  0.00  0.00    -0.490 OA
BRANCH  17  19
ATOM     19  C   UNL     1       0.813   5.712  -0.782  0.00  0.00    +0.050 C 
ATOM     20  C   UNL     1       1.824   4.744  -1.333  0.00  0.00    -0.020 C 
ATOM     21  C   UNL     1       2.814   5.141  -2.113  0.00  0.00    -0.050 C 
ATOM     22  C   UNL     1       3.781   4.145  -2.614  0.00  0.00    +0.000 A 
ATOM     23  C   UNL     1       4.446   4.529  -3.797  0.00  0.00    -0.130 A 
ATOM     24  C   UNL     1       5.418   3.776  -4.463  0.00  0.00    +0.130 A 
ATOM     25  N   UNL     1       5.790   4.536  -5.532  0.00  0.00    -0.580 N 
ATOM     26  H   UNL     1       6.460   4.281  -6.186  0.00  0.00    +0.420 HD
ATOM     27  C   UNL     1       5.075   5.723  -5.554  0.00  0.00    +0.070 A 
ATOM     28 BR   UNL     1       5.264   7.075  -6.862  0.00  0.00    +0.010 Br
ATOM     29  C   UNL     1       5.749   2.536  -3.921  0.00  0.00    +0.010 A 
ATOM     30  C   UNL     1       5.091   2.146  -2.760  0.00  0.00    +0.040 A 
ATOM     31  C   UNL     1       4.236   5.776  -4.523  0.00  0.00    -0.110 A 
ATOM     32  C   UNL     1       3.214   6.765  -4.028  0.00  0.00    +0.140 C 
ATOM     33  C   UNL     1       4.130   2.914  -2.107  0.00  0.00    +0.000 A 
ATOM     34  C   UNL     1       3.014   6.578  -2.518  0.00  0.00    +0.190 C 
ATOM     35  N   UNL     1       1.944   7.452  -2.053  0.00  0.00    -0.550 NA
ATOM     36  C   UNL     1       2.353   8.861  -2.111  0.00  0.00    +0.210 C 
ATOM     37  C   UNL     1       1.459   7.101  -0.715  0.00  0.00    +0.220 C 
ENDBRANCH  17  19
ENDBRANCH  10  15
BRANCH  10  38
ATOM     38  C   UNL     1      -2.031   4.434   2.368  0.00  0.00    +0.010 C 
ATOM     39  C   UNL     1      -2.989   4.199   1.198  0.00  0.00    +0.050 C 
ATOM     40  C   UNL     1      -1.769   5.934   2.520  0.00  0.00    +0.040 C 
ENDBRANCH  10  38
BRANCH   8  41
ATOM     41  O   UNL     1       2.144   2.878   2.405  0.00  0.00    -0.540 OA
ATOM     42  H   UNL     1       1.915   2.979   1.471  0.00  0.00    +0.380 HD
ENDBRANCH   8  41
BRANCH   1  43
ATOM     43  C   UNL     1       1.190  -0.380   2.100  0.00  0.00    +0.050 C 
BRANCH  43  45
ATOM     44  C   UNL     1      -0.109  -2.507   2.279  0.00  0.00    +0.010 C 
ATOM     45  C   UNL     1       1.286  -1.884   2.363  0.00  0.00    -0.010 C 
ATOM     46  C   UNL     1       2.195  -2.528   1.314  0.00  0.00    +0.020 C 
ENDBRANCH  43  45
ENDBRANCH   1  43
TORSDOF 6
