MODEL 1
REMARK VINA RESULT:      -6.7      0.000      0.000
REMARK  Name = ZINC000003800008
REMARK  11 active torsions:
REMARK  status: ('A' for Active; 'I' for Inactive)
REMARK    1  A    between atoms: C2_2  and  C3_3
REMARK    2  A    between atoms: C3_3  and  N4_4
REMARK    3  A    between atoms: C7_7  and  C9_9
REMARK    4  A    between atoms: N11_11  and  C12_12
REMARK    5  A    between atoms: C12_12  and  C13_13
REMARK    6  A    between atoms: C13_13  and  C14_14
REMARK    7  A    between atoms: C14_14  and  N15_15
REMARK    8  A    between atoms: N15_15  and  C17_17
REMARK    9  A    between atoms: N15_15  and  C18_18
REMARK   10  A    between atoms: N21_21  and  C22_22
REMARK   11  A    between atoms: C22_22  and  C23_23
REMARK                            x       y       z     vdW  Elec       q    Type
REMARK                         _______ _______ _______ _____ _____    ______ ____
ROOT
ATOM      1  N   UNL     1     -21.147  -7.222 -28.506  0.00  0.00    -0.380 N 
ATOM      2  C   UNL     1     -22.131  -7.324 -27.424  0.00  0.00    +0.300 C 
ATOM      3  C   UNL     1     -22.404  -5.931 -26.851  0.00  0.00    -0.020 C 
ATOM      4  C   UNL     1     -22.958  -5.033 -27.960  0.00  0.00    +0.050 C 
ATOM      5  C   UNL     1     -21.962  -4.993 -29.122  0.00  0.00    +0.080 C 
ATOM      6  C   UNL     1     -22.527  -4.164 -30.235  0.00  0.00    -0.060 A 
ATOM      7  C   UNL     1     -22.145  -4.518 -31.532  0.00  0.00    -0.130 A 
ATOM      8  C   UNL     1     -21.263  -5.629 -31.888  0.00  0.00    -0.210 A 
ATOM      9  C   UNL     1     -20.707  -6.492 -30.784  0.00  0.00    +0.150 C 
ATOM     10  C   UNL     1     -21.169  -5.598 -33.209  0.00  0.00    +0.280 A 
ATOM     11  N   UNL     1     -21.927  -4.555 -33.719  0.00  0.00    -0.590 N 
ATOM     12  H   UNL     1     -22.007  -4.339 -34.661  0.00  0.00    +0.430 HD
ATOM     13  C   UNL     1     -22.544  -3.878 -32.711  0.00  0.00    +0.120 A 
ATOM     14  C   UNL     1     -23.408  -2.791 -32.587  0.00  0.00    +0.040 A 
ATOM     15  C   UNL     1     -23.792  -2.440 -31.301  0.00  0.00    +0.030 A 
ATOM     16  C   UNL     1     -23.369  -3.101 -30.148  0.00  0.00    +0.010 A 
ATOM     17  C   UNL     1     -21.694  -6.420 -29.607  0.00  0.00    +0.180 C 
ATOM     18  H   UNL     1     -20.308  -6.783 -28.157  0.00  0.00    +0.420 HD
ENDROOT
BRANCH   3  19
ATOM     19  C   UNL     1     -23.411  -6.035 -25.734  0.00  0.00    +0.530 C 
ATOM     20  N   UNL     1     -23.124  -5.530 -24.518  0.00  0.00    -0.570 N 
ATOM     21  C   UNL     1     -21.956  -4.890 -24.314  0.00  0.00    +0.690 C 
ATOM     22  N   UNL     1     -20.914  -5.107 -25.140  0.00  0.00    -0.740 N 
ATOM     23  H   UNL     1     -21.027  -5.662 -25.928  0.00  0.00    +0.410 HD
ATOM     24  O   UNL     1     -21.842  -4.114 -23.385  0.00  0.00    -0.520 OA
ATOM     25  O   UNL     1     -24.481  -6.572 -25.929  0.00  0.00    -0.480 OA
BRANCH  22  26
ATOM     26  C   UNL     1     -19.609  -4.508 -24.848  0.00  0.00    +0.280 C 
ATOM     27  C   UNL     1     -18.514  -5.564 -25.010  0.00  0.00    +0.040 C 
ENDBRANCH  22  26
BRANCH  20  28
ATOM     28  C   UNL     1     -24.081  -5.677 -23.419  0.00  0.00    +0.340 C 
BRANCH  28  29
ATOM     29  C   UNL     1     -24.907  -4.396 -23.286  0.00  0.00    +0.010 C 
BRANCH  29  30
ATOM     30  C   UNL     1     -26.392  -4.729 -23.437  0.00  0.00    +0.270 C 
BRANCH  30  31
ATOM     31  N   UNL     1     -26.697  -4.976 -24.853  0.00  0.00    -0.390 N 
ATOM     32  C   UNL     1     -26.554  -3.727 -25.611  0.00  0.00    +0.320 C 
ATOM     33  C   UNL     1     -28.075  -5.469 -24.978  0.00  0.00    +0.330 C 
ATOM     34  H   UNL     1     -26.059  -5.667 -25.219  0.00  0.00    +0.430 HD
ENDBRANCH  30  31
ENDBRANCH  29  30
ENDBRANCH  28  29
ENDBRANCH  20  28
ENDBRANCH   3  19
BRANCH   1  35
ATOM     35  C   UNL     1     -20.823  -8.569 -29.000  0.00  0.00    +0.300 C 
BRANCH  35  37
ATOM     36  C   UNL     1     -18.757  -8.164 -27.763  0.00  0.00    +0.130 C 
ATOM     37  C   UNL     1     -19.514  -9.019 -28.406  0.00  0.00    -0.110 C 
ENDBRANCH  35  37
ENDBRANCH   1  35
TORSDOF 8
ENDMDL
MODEL 2
REMARK VINA RESULT:      -6.2     33.425     35.585
REMARK  Name = ZINC000003800008
REMARK  11 active torsions:
REMARK  status: ('A' for Active; 'I' for Inactive)
REMARK    1  A    between atoms: C2_2  and  C3_3
REMARK    2  A    between atoms: C3_3  and  N4_4
REMARK    3  A    between atoms: C7_7  and  C9_9
REMARK    4  A    between atoms: N11_11  and  C12_12
REMARK    5  A    between atoms: C12_12  and  C13_13
REMARK    6  A    between atoms: C13_13  and  C14_14
REMARK    7  A    between atoms: C14_14  and  N15_15
REMARK    8  A    between atoms: N15_15  and  C17_17
REMARK    9  A    between atoms: N15_15  and  C18_18
REMARK   10  A    between atoms: N21_21  and  C22_22
REMARK   11  A    between atoms: C22_22  and  C23_23
REMARK                            x       y       z     vdW  Elec       q    Type
REMARK                         _______ _______ _______ _____ _____    ______ ____
ROOT
ATOM      1  N   UNL     1       4.825  19.361 -28.519  0.00  0.00    -0.380 N 
ATOM      2  C   UNL     1       4.162  18.061 -28.663  0.00  0.00    +0.300 C 
ATOM      3  C   UNL     1       2.744  18.268 -29.201  0.00  0.00    -0.020 C 
ATOM      4  C   UNL     1       2.822  18.954 -30.568  0.00  0.00    +0.050 C 
ATOM      5  C   UNL     1       3.585  20.275 -30.427  0.00  0.00    +0.080 C 
ATOM      6  C   UNL     1       3.717  20.921 -31.773  0.00  0.00    -0.060 A 
ATOM      7  C   UNL     1       4.855  21.705 -31.979  0.00  0.00    -0.130 A 
ATOM      8  C   UNL     1       5.924  21.929 -31.007  0.00  0.00    -0.210 A 
ATOM      9  C   UNL     1       5.823  21.265 -29.658  0.00  0.00    +0.150 C 
ATOM     10  C   UNL     1       6.791  22.727 -31.611  0.00  0.00    +0.280 A 
ATOM     11  N   UNL     1       6.358  23.023 -32.895  0.00  0.00    -0.590 N 
ATOM     12  H   UNL     1       6.831  23.591 -33.521  0.00  0.00    +0.430 HD
ATOM     13  C   UNL     1       5.172  22.402 -33.150  0.00  0.00    +0.120 A 
ATOM     14  C   UNL     1       4.277  22.304 -34.215  0.00  0.00    +0.040 A 
ATOM     15  C   UNL     1       3.148  21.523 -34.013  0.00  0.00    +0.030 A 
ATOM     16  C   UNL     1       2.864  20.846 -32.829  0.00  0.00    +0.010 A 
ATOM     17  C   UNL     1       4.968  19.999 -29.834  0.00  0.00    +0.180 C 
ATOM     18  H   UNL     1       4.273  19.954 -27.918  0.00  0.00    +0.420 HD
ENDROOT
BRANCH   3  19
ATOM     19  C   UNL     1       2.059  16.933 -29.344  0.00  0.00    +0.530 C 
ATOM     20  N   UNL     1       0.723  16.842 -29.196  0.00  0.00    -0.570 N 
ATOM     21  C   UNL     1      -0.007  17.952 -28.968  0.00  0.00    +0.690 C 
ATOM     22  N   UNL     1       0.583  19.056 -28.469  0.00  0.00    -0.740 N 
ATOM     23  H   UNL     1       1.545  19.079 -28.350  0.00  0.00    +0.410 HD
ATOM     24  O   UNL     1      -1.197  17.957 -29.213  0.00  0.00    -0.520 OA
ATOM     25  O   UNL     1       2.710  15.941 -29.593  0.00  0.00    -0.480 OA
BRANCH  22  26
ATOM     26  C   UNL     1      -0.229  20.220 -28.106  0.00  0.00    +0.280 C 
ATOM     27  C   UNL     1       0.610  21.492 -28.249  0.00  0.00    +0.040 C 
ENDBRANCH  22  26
BRANCH  20  28
ATOM     28  C   UNL     1       0.064  15.536 -29.282  0.00  0.00    +0.340 C 
BRANCH  28  29
ATOM     29  C   UNL     1      -0.062  15.125 -30.751  0.00  0.00    +0.010 C 
BRANCH  29  30
ATOM     30  C   UNL     1      -0.143  13.600 -30.848  0.00  0.00    +0.270 C 
BRANCH  30  31
ATOM     31  N   UNL     1       1.078  13.085 -31.481  0.00  0.00    -0.390 N 
ATOM     32  C   UNL     1       1.638  14.109 -32.373  0.00  0.00    +0.320 C 
ATOM     33  C   UNL     1       0.755  11.882 -32.260  0.00  0.00    +0.330 C 
ATOM     34  H   UNL     1       1.755  12.852 -30.769  0.00  0.00    +0.430 HD
ENDBRANCH  30  31
ENDBRANCH  29  30
ENDBRANCH  28  29
ENDBRANCH  20  28
ENDBRANCH   3  19
BRANCH   1  35
ATOM     35  C   UNL     1       6.156  19.167 -27.925  0.00  0.00    +0.300 C 
BRANCH  35  37
ATOM     36  C   UNL     1       7.746  17.315 -27.993  0.00  0.00    +0.130 C 
ATOM     37  C   UNL     1       6.495  17.699 -27.925  0.00  0.00    -0.110 C 
ENDBRANCH  35  37
ENDBRANCH   1  35
TORSDOF 8
ENDMDL
MODEL 3
REMARK VINA RESULT:      -6.2     26.550     28.912
REMARK  Name = ZINC000003800008
REMARK  11 active torsions:
REMARK  status: ('A' for Active; 'I' for Inactive)
REMARK    1  A    between atoms: C2_2  and  C3_3
REMARK    2  A    between atoms: C3_3  and  N4_4
REMARK    3  A    between atoms: C7_7  and  C9_9
REMARK    4  A    between atoms: N11_11  and  C12_12
REMARK    5  A    between atoms: C12_12  and  C13_13
REMARK    6  A    between atoms: C13_13  and  C14_14
REMARK    7  A    between atoms: C14_14  and  N15_15
REMARK    8  A    between atoms: N15_15  and  C17_17
REMARK    9  A    between atoms: N15_15  and  C18_18
REMARK   10  A    between atoms: N21_21  and  C22_22
REMARK   11  A    between atoms: C22_22  and  C23_23
REMARK                            x       y       z     vdW  Elec       q    Type
REMARK                         _______ _______ _______ _____ _____    ______ ____
ROOT
ATOM      1  N   UNL     1      -0.968  10.490 -38.723  0.00  0.00    -0.380 N 
ATOM      2  C   UNL     1      -1.044  11.308 -37.508  0.00  0.00    +0.300 C 
ATOM      3  C   UNL     1      -1.771  12.618 -37.819  0.00  0.00    -0.020 C 
ATOM      4  C   UNL     1      -3.187  12.301 -38.308  0.00  0.00    +0.050 C 
ATOM      5  C   UNL     1      -3.105  11.382 -39.530  0.00  0.00    +0.080 C 
ATOM      6  C   UNL     1      -4.489  11.019 -39.976  0.00  0.00    -0.060 A 
ATOM      7  C   UNL     1      -4.642   9.768 -40.579  0.00  0.00    -0.130 A 
ATOM      8  C   UNL     1      -3.578   8.788 -40.792  0.00  0.00    -0.210 A 
ATOM      9  C   UNL     1      -2.184   9.122 -40.325  0.00  0.00    +0.150 C 
ATOM     10  C   UNL     1      -4.158   7.759 -41.391  0.00  0.00    +0.280 A 
ATOM     11  N   UNL     1      -5.510   8.008 -41.571  0.00  0.00    -0.590 N 
ATOM     12  H   UNL     1      -6.134   7.396 -41.991  0.00  0.00    +0.430 HD
ATOM     13  C   UNL     1      -5.837   9.234 -41.075  0.00  0.00    +0.120 A 
ATOM     14  C   UNL     1      -6.985  10.015 -40.953  0.00  0.00    +0.040 A 
ATOM     15  C   UNL     1      -6.836  11.257 -40.351  0.00  0.00    +0.030 A 
ATOM     16  C   UNL     1      -5.626  11.757 -39.872  0.00  0.00    +0.010 A 
ATOM     17  C   UNL     1      -2.319  10.121 -39.163  0.00  0.00    +0.180 C 
ATOM     18  H   UNL     1      -0.511  11.015 -39.453  0.00  0.00    +0.420 HD
ENDROOT
BRANCH   3  19
ATOM     19  C   UNL     1      -1.845  13.462 -36.573  0.00  0.00    +0.530 C 
ATOM     20  N   UNL     1      -1.418  14.740 -36.598  0.00  0.00    -0.570 N 
ATOM     21  C   UNL     1      -0.971  15.278 -37.750  0.00  0.00    +0.690 C 
ATOM     22  N   UNL     1      -0.544  14.478 -38.747  0.00  0.00    -0.740 N 
ATOM     23  H   UNL     1      -0.634  13.516 -38.668  0.00  0.00    +0.410 HD
ATOM     24  O   UNL     1      -0.953  16.485 -37.889  0.00  0.00    -0.520 OA
ATOM     25  O   UNL     1      -2.288  12.992 -35.547  0.00  0.00    -0.480 OA
BRANCH  22  26
ATOM     26  C   UNL     1       0.055  15.062 -39.949  0.00  0.00    +0.280 C 
ATOM     27  C   UNL     1      -0.631  14.490 -41.191  0.00  0.00    +0.040 C 
ENDBRANCH  22  26
BRANCH  20  28
ATOM     28  C   UNL     1      -1.440  15.544 -35.373  0.00  0.00    +0.340 C 
BRANCH  28  29
ATOM     29  C   UNL     1      -0.140  15.325 -34.596  0.00  0.00    +0.010 C 
BRANCH  29  30
ATOM     30  C   UNL     1      -0.467  14.876 -33.171  0.00  0.00    +0.270 C 
BRANCH  30  31
ATOM     31  N   UNL     1      -0.575  13.412 -33.132  0.00  0.00    -0.390 N 
ATOM     32  C   UNL     1      -0.808  12.973 -31.750  0.00  0.00    +0.320 C 
ATOM     33  C   UNL     1       0.672  12.816 -33.631  0.00  0.00    +0.330 C 
ATOM     34  H   UNL     1      -1.345  13.115 -33.714  0.00  0.00    +0.430 HD
ENDBRANCH  30  31
ENDBRANCH  29  30
ENDBRANCH  28  29
ENDBRANCH  20  28
ENDBRANCH   3  19
BRANCH   1  35
ATOM     35  C   UNL     1      -0.197   9.270 -38.443  0.00  0.00    +0.300 C 
BRANCH  35  37
ATOM     36  C   UNL     1      -0.996   7.625 -36.825  0.00  0.00    +0.130 C 
ATOM     37  C   UNL     1      -0.480   8.811 -37.036  0.00  0.00    -0.110 C 
ENDBRANCH  35  37
ENDBRANCH   1  35
TORSDOF 8
ENDMDL
MODEL 4
REMARK VINA RESULT:      -6.0     29.148     31.938
REMARK  Name = ZINC000003800008
REMARK  11 active torsions:
REMARK  status: ('A' for Active; 'I' for Inactive)
REMARK    1  A    between atoms: C2_2  and  C3_3
REMARK    2  A    between atoms: C3_3  and  N4_4
REMARK    3  A    between atoms: C7_7  and  C9_9
REMARK    4  A    between atoms: N11_11  and  C12_12
REMARK    5  A    between atoms: C12_12  and  C13_13
REMARK    6  A    between atoms: C13_13  and  C14_14
REMARK    7  A    between atoms: C14_14  and  N15_15
REMARK    8  A    between atoms: N15_15  and  C17_17
REMARK    9  A    between atoms: N15_15  and  C18_18
REMARK   10  A    between atoms: N21_21  and  C22_22
REMARK   11  A    between atoms: C22_22  and  C23_23
REMARK                            x       y       z     vdW  Elec       q    Type
REMARK                         _______ _______ _______ _____ _____    ______ ____
ROOT
ATOM      1  N   UNL     1      -5.848  18.563 -26.094  0.00  0.00    -0.380 N 
ATOM      2  C   UNL     1      -4.621  17.814 -26.386  0.00  0.00    +0.300 C 
ATOM      3  C   UNL     1      -3.472  18.794 -26.633  0.00  0.00    -0.020 C 
ATOM      4  C   UNL     1      -3.261  19.646 -25.378  0.00  0.00    +0.050 C 
ATOM      5  C   UNL     1      -4.569  20.364 -25.031  0.00  0.00    +0.080 C 
ATOM      6  C   UNL     1      -4.386  21.152 -23.769  0.00  0.00    -0.060 A 
ATOM      7  C   UNL     1      -5.517  21.314 -22.965  0.00  0.00    -0.130 A 
ATOM      8  C   UNL     1      -6.845  20.769 -23.243  0.00  0.00    -0.210 A 
ATOM      9  C   UNL     1      -7.043  19.950 -24.493  0.00  0.00    +0.150 C 
ATOM     10  C   UNL     1      -7.608  21.162 -22.234  0.00  0.00    +0.280 A 
ATOM     11  N   UNL     1      -6.865  21.911 -21.335  0.00  0.00    -0.590 N 
ATOM     12  H   UNL     1      -7.215  22.306 -20.521  0.00  0.00    +0.430 HD
ATOM     13  C   UNL     1      -5.574  22.015 -21.756  0.00  0.00    +0.120 A 
ATOM     14  C   UNL     1      -4.394  22.604 -21.303  0.00  0.00    +0.040 A 
ATOM     15  C   UNL     1      -3.268  22.442 -22.098  0.00  0.00    +0.030 A 
ATOM     16  C   UNL     1      -3.252  21.738 -23.301  0.00  0.00    +0.010 A 
ATOM     17  C   UNL     1      -5.682  19.330 -24.854  0.00  0.00    +0.180 C 
ATOM     18  H   UNL     1      -6.044  19.195 -26.855  0.00  0.00    +0.420 HD
ENDROOT
BRANCH   3  19
ATOM     19  C   UNL     1      -2.212  18.027 -26.940  0.00  0.00    +0.530 C 
ATOM     20  N   UNL     1      -1.480  18.339 -28.028  0.00  0.00    -0.570 N 
ATOM     21  C   UNL     1      -1.849  19.368 -28.814  0.00  0.00    +0.690 C 
ATOM     22  N   UNL     1      -3.122  19.810 -28.794  0.00  0.00    -0.740 N 
ATOM     23  H   UNL     1      -3.753  19.441 -28.157  0.00  0.00    +0.410 HD
ATOM     24  O   UNL     1      -1.033  19.900 -29.541  0.00  0.00    -0.520 OA
ATOM     25  O   UNL     1      -1.855  17.128 -26.207  0.00  0.00    -0.480 OA
BRANCH  22  26
ATOM     26  C   UNL     1      -3.553  20.846 -29.737  0.00  0.00    +0.280 C 
ATOM     27  C   UNL     1      -4.235  21.981 -28.970  0.00  0.00    +0.040 C 
ENDBRANCH  22  26
BRANCH  20  28
ATOM     28  C   UNL     1      -0.284  17.558 -28.354  0.00  0.00    +0.340 C 
BRANCH  28  29
ATOM     29  C   UNL     1      -0.637  16.499 -29.401  0.00  0.00    +0.010 C 
BRANCH  29  30
ATOM     30  C   UNL     1       0.348  16.588 -30.569  0.00  0.00    +0.270 C 
BRANCH  30  31
ATOM     31  N   UNL     1       1.011  15.290 -30.749  0.00  0.00    -0.390 N 
ATOM     32  C   UNL     1       0.090  14.212 -30.369  0.00  0.00    +0.320 C 
ATOM     33  C   UNL     1       2.209  15.232 -29.900  0.00  0.00    +0.330 C 
ATOM     34  H   UNL     1       1.280  15.180 -31.715  0.00  0.00    +0.430 HD
ENDBRANCH  30  31
ENDBRANCH  29  30
ENDBRANCH  28  29
ENDBRANCH  20  28
ENDBRANCH   3  19
BRANCH   1  35
ATOM     35  C   UNL     1      -6.968  17.623 -25.939  0.00  0.00    +0.300 C 
BRANCH  35  37
ATOM     36  C   UNL     1      -7.437  15.296 -26.512  0.00  0.00    +0.130 C 
ATOM     37  C   UNL     1      -6.559  16.268 -26.454  0.00  0.00    -0.110 C 
ENDBRANCH  35  37
ENDBRANCH   1  35
TORSDOF 8
ENDMDL
MODEL 5
REMARK VINA RESULT:      -6.0     28.119     29.880
REMARK  Name = ZINC000003800008
REMARK  11 active torsions:
REMARK  status: ('A' for Active; 'I' for Inactive)
REMARK    1  A    between atoms: C2_2  and  C3_3
REMARK    2  A    between atoms: C3_3  and  N4_4
REMARK    3  A    between atoms: C7_7  and  C9_9
REMARK    4  A    between atoms: N11_11  and  C12_12
REMARK    5  A    between atoms: C12_12  and  C13_13
REMARK    6  A    between atoms: C13_13  and  C14_14
REMARK    7  A    between atoms: C14_14  and  N15_15
REMARK    8  A    between atoms: N15_15  and  C17_17
REMARK    9  A    between atoms: N15_15  and  C18_18
REMARK   10  A    between atoms: N21_21  and  C22_22
REMARK   11  A    between atoms: C22_22  and  C23_23
REMARK                            x       y       z     vdW  Elec       q    Type
REMARK                         _______ _______ _______ _____ _____    ______ ____
ROOT
ATOM      1  N   UNL     1       0.002  12.636 -34.240  0.00  0.00    -0.380 N 
ATOM      2  C   UNL     1      -1.050  13.538 -33.759  0.00  0.00    +0.300 C 
ATOM      3  C   UNL     1      -1.491  14.461 -34.897  0.00  0.00    -0.020 C 
ATOM      4  C   UNL     1      -2.037  13.612 -36.048  0.00  0.00    +0.050 C 
ATOM      5  C   UNL     1      -0.961  12.617 -36.495  0.00  0.00    +0.080 C 
ATOM      6  C   UNL     1      -1.511  11.743 -37.581  0.00  0.00    -0.060 A 
ATOM      7  C   UNL     1      -0.999  10.445 -37.655  0.00  0.00    -0.130 A 
ATOM      8  C   UNL     1       0.004   9.871 -36.759  0.00  0.00    -0.210 A 
ATOM      9  C   UNL     1       0.548  10.726 -35.643  0.00  0.00    +0.150 C 
ATOM     10  C   UNL     1       0.196   8.633 -37.188  0.00  0.00    +0.280 A 
ATOM     11  N   UNL     1      -0.611   8.375 -38.285  0.00  0.00    -0.590 N 
ATOM     12  H   UNL     1      -0.637   7.534 -38.768  0.00  0.00    +0.430 HD
ATOM     13  C   UNL     1      -1.362   9.469 -38.591  0.00  0.00    +0.120 A 
ATOM     14  C   UNL     1      -2.327   9.817 -39.535  0.00  0.00    +0.040 A 
ATOM     15  C   UNL     1      -2.840  11.105 -39.461  0.00  0.00    +0.030 A 
ATOM     16  C   UNL     1      -2.450  12.051 -38.515  0.00  0.00    +0.010 A 
ATOM     17  C   UNL     1      -0.530  11.768 -35.298  0.00  0.00    +0.180 C 
ATOM     18  H   UNL     1       0.767  13.180 -34.607  0.00  0.00    +0.420 HD
ENDROOT
BRANCH   3  19
ATOM     19  C   UNL     1      -2.568  15.392 -34.402  0.00  0.00    +0.530 C 
ATOM     20  N   UNL     1      -2.765  16.579 -35.010  0.00  0.00    -0.570 N 
ATOM     21  C   UNL     1      -2.031  16.912 -36.090  0.00  0.00    +0.690 C 
ATOM     22  N   UNL     1      -0.850  16.305 -36.316  0.00  0.00    -0.740 N 
ATOM     23  H   UNL     1      -0.564  15.574 -35.747  0.00  0.00    +0.410 HD
ATOM     24  O   UNL     1      -2.437  17.759 -36.861  0.00  0.00    -0.520 OA
ATOM     25  O   UNL     1      -3.258  15.074 -33.457  0.00  0.00    -0.480 OA
BRANCH  22  26
ATOM     26  C   UNL     1       0.004  16.752 -37.420  0.00  0.00    +0.280 C 
ATOM     27  C   UNL     1       0.002  15.694 -38.526  0.00  0.00    +0.040 C 
ENDBRANCH  22  26
BRANCH  20  28
ATOM     28  C   UNL     1      -3.775  17.507 -34.495  0.00  0.00    +0.340 C 
BRANCH  28  29
ATOM     29  C   UNL     1      -3.087  18.633 -33.721  0.00  0.00    +0.010 C 
BRANCH  29  30
ATOM     30  C   UNL     1      -3.741  18.780 -32.346  0.00  0.00    +0.270 C 
BRANCH  30  31
ATOM     31  N   UNL     1      -3.628  17.513 -31.612  0.00  0.00    -0.390 N 
ATOM     32  C   UNL     1      -4.865  17.271 -30.858  0.00  0.00    +0.320 C 
ATOM     33  C   UNL     1      -2.494  17.587 -30.680  0.00  0.00    +0.330 C 
ATOM     34  H   UNL     1      -3.477  16.758 -32.264  0.00  0.00    +0.430 HD
ENDBRANCH  30  31
ENDBRANCH  29  30
ENDBRANCH  28  29
ENDBRANCH  20  28
ENDBRANCH   3  19
BRANCH   1  35
ATOM     35  C   UNL     1       0.482  11.807 -33.126  0.00  0.00    +0.300 C 
BRANCH  35  37
ATOM     36  C   UNL     1       2.306  13.410 -32.869  0.00  0.00    +0.130 C 
ATOM     37  C   UNL     1       1.451  12.603 -32.291  0.00  0.00    -0.110 C 
ENDBRANCH  35  37
ENDBRANCH   1  35
TORSDOF 8
ENDMDL
MODEL 6
REMARK VINA RESULT:      -5.9      1.470      2.125
REMARK  Name = ZINC000003800008
REMARK  11 active torsions:
REMARK  status: ('A' for Active; 'I' for Inactive)
REMARK    1  A    between atoms: C2_2  and  C3_3
REMARK    2  A    between atoms: C3_3  and  N4_4
REMARK    3  A    between atoms: C7_7  and  C9_9
REMARK    4  A    between atoms: N11_11  and  C12_12
REMARK    5  A    between atoms: C12_12  and  C13_13
REMARK    6  A    between atoms: C13_13  and  C14_14
REMARK    7  A    between atoms: C14_14  and  N15_15
REMARK    8  A    between atoms: N15_15  and  C17_17
REMARK    9  A    between atoms: N15_15  and  C18_18
REMARK   10  A    between atoms: N21_21  and  C22_22
REMARK   11  A    between atoms: C22_22  and  C23_23
REMARK                            x       y       z     vdW  Elec       q    Type
REMARK                         _______ _______ _______ _____ _____    ______ ____
ROOT
ATOM      1  N   UNL     1     -21.251  -7.113 -28.396  0.00  0.00    -0.380 N 
ATOM      2  C   UNL     1     -22.252  -7.193 -27.328  0.00  0.00    +0.300 C 
ATOM      3  C   UNL     1     -22.530  -5.789 -26.784  0.00  0.00    -0.020 C 
ATOM      4  C   UNL     1     -23.064  -4.909 -27.918  0.00  0.00    +0.050 C 
ATOM      5  C   UNL     1     -22.050  -4.894 -29.065  0.00  0.00    +0.080 C 
ATOM      6  C   UNL     1     -22.595  -4.083 -30.202  0.00  0.00    -0.060 A 
ATOM      7  C   UNL     1     -22.193  -4.461 -31.485  0.00  0.00    -0.130 A 
ATOM      8  C   UNL     1     -21.309  -5.581 -31.808  0.00  0.00    -0.210 A 
ATOM      9  C   UNL     1     -20.773  -6.425 -30.680  0.00  0.00    +0.150 C 
ATOM     10  C   UNL     1     -21.195  -5.574 -33.127  0.00  0.00    +0.280 A 
ATOM     11  N   UNL     1     -21.941  -4.539 -33.668  0.00  0.00    -0.590 N 
ATOM     12  H   UNL     1     -22.006  -4.339 -34.615  0.00  0.00    +0.430 HD
ATOM     13  C   UNL     1     -22.571  -3.841 -32.682  0.00  0.00    +0.120 A 
ATOM     14  C   UNL     1     -23.434  -2.750 -32.591  0.00  0.00    +0.040 A 
ATOM     15  C   UNL     1     -23.837  -2.375 -31.317  0.00  0.00    +0.030 A 
ATOM     16  C   UNL     1     -23.435  -3.016 -30.147  0.00  0.00    +0.010 A 
ATOM     17  C   UNL     1     -21.779  -6.329 -29.520  0.00  0.00    +0.180 C 
ATOM     18  H   UNL     1     -20.417  -6.671 -28.042  0.00  0.00    +0.420 HD
ENDROOT
BRANCH   3  19
ATOM     19  C   UNL     1     -23.555  -5.870 -25.682  0.00  0.00    +0.530 C 
ATOM     20  N   UNL     1     -23.278  -5.359 -24.466  0.00  0.00    -0.570 N 
ATOM     21  C   UNL     1     -22.105  -4.733 -24.250  0.00  0.00    +0.690 C 
ATOM     22  N   UNL     1     -21.054  -4.972 -25.058  0.00  0.00    -0.740 N 
ATOM     23  H   UNL     1     -21.163  -5.532 -25.843  0.00  0.00    +0.410 HD
ATOM     24  O   UNL     1     -21.994  -3.952 -23.325  0.00  0.00    -0.520 OA
ATOM     25  O   UNL     1     -24.629  -6.394 -25.889  0.00  0.00    -0.480 OA
BRANCH  22  26
ATOM     26  C   UNL     1     -19.745  -4.388 -24.752  0.00  0.00    +0.280 C 
ATOM     27  C   UNL     1     -18.891  -4.356 -26.021  0.00  0.00    +0.040 C 
ENDBRANCH  22  26
BRANCH  20  28
ATOM     28  C   UNL     1     -24.253  -5.484 -23.379  0.00  0.00    +0.340 C 
BRANCH  28  29
ATOM     29  C   UNL     1     -23.889  -6.685 -22.503  0.00  0.00    +0.010 C 
BRANCH  29  30
ATOM     30  C   UNL     1     -25.168  -7.356 -21.999  0.00  0.00    +0.270 C 
BRANCH  30  31
ATOM     31  N   UNL     1     -24.982  -7.779 -20.605  0.00  0.00    -0.390 N 
ATOM     32  C   UNL     1     -23.836  -7.066 -20.025  0.00  0.00    +0.320 C 
ATOM     33  C   UNL     1     -24.730  -9.226 -20.563  0.00  0.00    +0.330 C 
ATOM     34  H   UNL     1     -25.814  -7.567 -20.075  0.00  0.00    +0.430 HD
ENDBRANCH  30  31
ENDBRANCH  29  30
ENDBRANCH  28  29
ENDBRANCH  20  28
ENDBRANCH   3  19
BRANCH   1  35
ATOM     35  C   UNL     1     -20.924  -8.469 -28.861  0.00  0.00    +0.300 C 
BRANCH  35  37
ATOM     36  C   UNL     1     -19.764 -10.074 -27.432  0.00  0.00    +0.130 C 
ATOM     37  C   UNL     1     -19.704  -8.968 -28.131  0.00  0.00    -0.110 C 
ENDBRANCH  35  37
ENDBRANCH   1  35
TORSDOF 8
ENDMDL
MODEL 7
REMARK VINA RESULT:      -5.9     24.083     26.929
REMARK  Name = ZINC000003800008
REMARK  11 active torsions:
REMARK  status: ('A' for Active; 'I' for Inactive)
REMARK    1  A    between atoms: C2_2  and  C3_3
REMARK    2  A    between atoms: C3_3  and  N4_4
REMARK    3  A    between atoms: C7_7  and  C9_9
REMARK    4  A    between atoms: N11_11  and  C12_12
REMARK    5  A    between atoms: C12_12  and  C13_13
REMARK    6  A    between atoms: C13_13  and  C14_14
REMARK    7  A    between atoms: C14_14  and  N15_15
REMARK    8  A    between atoms: N15_15  and  C17_17
REMARK    9  A    between atoms: N15_15  and  C18_18
REMARK   10  A    between atoms: N21_21  and  C22_22
REMARK   11  A    between atoms: C22_22  and  C23_23
REMARK                            x       y       z     vdW  Elec       q    Type
REMARK                         _______ _______ _______ _____ _____    ______ ____
ROOT
ATOM      1  N   UNL     1       2.615  -4.116 -33.818  0.00  0.00    -0.380 N 
ATOM      2  C   UNL     1       2.407  -3.234 -32.665  0.00  0.00    +0.300 C 
ATOM      3  C   UNL     1       3.516  -3.469 -31.636  0.00  0.00    -0.020 C 
ATOM      4  C   UNL     1       4.870  -3.156 -32.279  0.00  0.00    +0.050 C 
ATOM      5  C   UNL     1       5.048  -4.024 -33.529  0.00  0.00    +0.080 C 
ATOM      6  C   UNL     1       6.344  -3.678 -34.195  0.00  0.00    -0.060 A 
ATOM      7  C   UNL     1       6.391  -3.830 -35.584  0.00  0.00    -0.130 A 
ATOM      8  C   UNL     1       5.286  -4.276 -36.431  0.00  0.00    -0.210 A 
ATOM      9  C   UNL     1       3.965  -4.601 -35.782  0.00  0.00    +0.150 C 
ATOM     10  C   UNL     1       5.764  -4.278 -37.666  0.00  0.00    +0.280 A 
ATOM     11  N   UNL     1       7.087  -3.863 -37.669  0.00  0.00    -0.590 N 
ATOM     12  H   UNL     1       7.642  -3.789 -38.461  0.00  0.00    +0.430 HD
ATOM     13  C   UNL     1       7.497  -3.574 -36.403  0.00  0.00    +0.120 A 
ATOM     14  C   UNL     1       8.660  -3.120 -35.782  0.00  0.00    +0.040 A 
ATOM     15  C   UNL     1       8.615  -2.966 -34.404  0.00  0.00    +0.030 A 
ATOM     16  C   UNL     1       7.494  -3.235 -33.620  0.00  0.00    +0.010 A 
ATOM     17  C   UNL     1       3.879  -3.779 -34.484  0.00  0.00    +0.180 C 
ATOM     18  H   UNL     1       2.647  -5.075 -33.505  0.00  0.00    +0.420 HD
ENDROOT
BRANCH   3  19
ATOM     19  C   UNL     1       3.300  -2.568 -30.448  0.00  0.00    +0.530 C 
ATOM     20  N   UNL     1       2.978  -3.096 -29.250  0.00  0.00    -0.570 N 
ATOM     21  C   UNL     1       2.895  -4.433 -29.105  0.00  0.00    +0.690 C 
ATOM     22  N   UNL     1       2.706  -5.218 -30.183  0.00  0.00    -0.740 N 
ATOM     23  H   UNL     1       2.710  -4.830 -31.072  0.00  0.00    +0.410 HD
ATOM     24  O   UNL     1       2.992  -4.930 -28.000  0.00  0.00    -0.520 OA
ATOM     25  O   UNL     1       3.418  -1.367 -30.568  0.00  0.00    -0.480 OA
BRANCH  22  26
ATOM     26  C   UNL     1       2.493  -6.658 -30.013  0.00  0.00    +0.280 C 
ATOM     27  C   UNL     1       3.065  -7.404 -31.220  0.00  0.00    +0.040 C 
ENDBRANCH  22  26
BRANCH  20  28
ATOM     28  C   UNL     1       2.716  -2.216 -28.109  0.00  0.00    +0.340 C 
BRANCH  28  29
ATOM     29  C   UNL     1       1.227  -1.867 -28.064  0.00  0.00    +0.010 C 
BRANCH  29  30
ATOM     30  C   UNL     1       1.000  -0.724 -27.072  0.00  0.00    +0.270 C 
BRANCH  30  31
ATOM     31  N   UNL     1      -0.199  -1.003 -26.271  0.00  0.00    -0.390 N 
ATOM     32  C   UNL     1       0.152  -1.891 -25.156  0.00  0.00    +0.320 C 
ATOM     33  C   UNL     1      -1.210  -1.654 -27.116  0.00  0.00    +0.330 C 
ATOM     34  H   UNL     1      -0.571  -0.137 -25.909  0.00  0.00    +0.430 HD
ENDBRANCH  30  31
ENDBRANCH  29  30
ENDBRANCH  28  29
ENDBRANCH  20  28
ENDBRANCH   3  19
BRANCH   1  35
ATOM     35  C   UNL     1       1.504  -3.949 -34.766  0.00  0.00    +0.300 C 
BRANCH  35  37
ATOM     36  C   UNL     1       0.263  -2.078 -35.727  0.00  0.00    +0.130 C 
ATOM     37  C   UNL     1       1.092  -2.500 -34.804  0.00  0.00    -0.110 C 
ENDBRANCH  35  37
ENDBRANCH   1  35
TORSDOF 8
ENDMDL
MODEL 8
REMARK VINA RESULT:      -5.7      1.680      2.286
REMARK  Name = ZINC000003800008
REMARK  11 active torsions:
REMARK  status: ('A' for Active; 'I' for Inactive)
REMARK    1  A    between atoms: C2_2  and  C3_3
REMARK    2  A    between atoms: C3_3  and  N4_4
REMARK    3  A    between atoms: C7_7  and  C9_9
REMARK    4  A    between atoms: N11_11  and  C12_12
REMARK    5  A    between atoms: C12_12  and  C13_13
REMARK    6  A    between atoms: C13_13  and  C14_14
REMARK    7  A    between atoms: C14_14  and  N15_15
REMARK    8  A    between atoms: N15_15  and  C17_17
REMARK    9  A    between atoms: N15_15  and  C18_18
REMARK   10  A    between atoms: N21_21  and  C22_22
REMARK   11  A    between atoms: C22_22  and  C23_23
REMARK                            x       y       z     vdW  Elec       q    Type
REMARK                         _______ _______ _______ _____ _____    ______ ____
ROOT
ATOM      1  N   UNL     1     -20.479  -8.419 -28.089  0.00  0.00    -0.380 N 
ATOM      2  C   UNL     1     -21.492  -7.929 -27.147  0.00  0.00    +0.300 C 
ATOM      3  C   UNL     1     -21.428  -6.402 -27.078  0.00  0.00    -0.020 C 
ATOM      4  C   UNL     1     -21.706  -5.825 -28.468  0.00  0.00    +0.050 C 
ATOM      5  C   UNL     1     -20.695  -6.400 -29.465  0.00  0.00    +0.080 C 
ATOM      6  C   UNL     1     -21.000  -5.886 -30.839  0.00  0.00    -0.060 A 
ATOM      7  C   UNL     1     -20.676  -6.727 -31.906  0.00  0.00    -0.130 A 
ATOM      8  C   UNL     1     -20.088  -8.061 -31.792  0.00  0.00    -0.210 A 
ATOM      9  C   UNL     1     -19.800  -8.608 -30.417  0.00  0.00    +0.150 C 
ATOM     10  C   UNL     1     -19.948  -8.494 -33.035  0.00  0.00    +0.280 A 
ATOM     11  N   UNL     1     -20.406  -7.540 -33.930  0.00  0.00    -0.590 N 
ATOM     12  H   UNL     1     -20.400  -7.638 -34.895  0.00  0.00    +0.430 HD
ATOM     13  C   UNL     1     -20.866  -6.445 -33.263  0.00  0.00    +0.120 A 
ATOM     14  C   UNL     1     -21.436  -5.215 -33.587  0.00  0.00    +0.040 A 
ATOM     15  C   UNL     1     -21.761  -4.378 -32.528  0.00  0.00    +0.030 A 
ATOM     16  C   UNL     1     -21.553  -4.693 -31.186  0.00  0.00    +0.010 A 
ATOM     17  C   UNL     1     -20.775  -7.928 -29.441  0.00  0.00    +0.180 C 
ATOM     18  H   UNL     1     -19.570  -8.089 -27.805  0.00  0.00    +0.420 HD
ENDROOT
BRANCH   3  19
ATOM     19  C   UNL     1     -22.464  -5.898 -26.106  0.00  0.00    +0.530 C 
ATOM     20  N   UNL     1     -22.079  -5.319 -24.951  0.00  0.00    -0.570 N 
ATOM     21  C   UNL     1     -20.769  -5.147 -24.688  0.00  0.00    +0.690 C 
ATOM     22  N   UNL     1     -19.849  -5.900 -25.322  0.00  0.00    -0.740 N 
ATOM     23  H   UNL     1     -20.123  -6.508 -26.026  0.00  0.00    +0.410 HD
ATOM     24  O   UNL     1     -20.417  -4.312 -23.878  0.00  0.00    -0.520 OA
ATOM     25  O   UNL     1     -23.643  -6.013 -26.363  0.00  0.00    -0.480 OA
BRANCH  22  26
ATOM     26  C   UNL     1     -18.436  -5.800 -24.948  0.00  0.00    +0.280 C 
ATOM     27  C   UNL     1     -17.699  -7.063 -25.398  0.00  0.00    +0.040 C 
ENDBRANCH  22  26
BRANCH  20  28
ATOM     28  C   UNL     1     -23.086  -4.878 -23.982  0.00  0.00    +0.340 C 
BRANCH  28  29
ATOM     29  C   UNL     1     -23.527  -6.067 -23.127  0.00  0.00    +0.010 C 
BRANCH  29  30
ATOM     30  C   UNL     1     -24.539  -5.596 -22.080  0.00  0.00    +0.270 C 
BRANCH  30  31
ATOM     31  N   UNL     1     -25.823  -6.272 -22.304  0.00  0.00    -0.390 N 
ATOM     32  C   UNL     1     -25.611  -7.471 -23.125  0.00  0.00    +0.320 C 
ATOM     33  C   UNL     1     -26.741  -5.360 -22.999  0.00  0.00    +0.330 C 
ATOM     34  H   UNL     1     -26.223  -6.538 -21.416  0.00  0.00    +0.430 HD
ENDBRANCH  30  31
ENDBRANCH  29  30
ENDBRANCH  28  29
ENDBRANCH  20  28
ENDBRANCH   3  19
BRANCH   1  35
ATOM     35  C   UNL     1     -20.486  -9.888 -28.093  0.00  0.00    +0.300 C 
BRANCH  35  37
ATOM     36  C   UNL     1     -18.250 -10.327 -27.215  0.00  0.00    +0.130 C 
ATOM     37  C   UNL     1     -19.545 -10.396 -27.031  0.00  0.00    -0.110 C 
ENDBRANCH  35  37
ENDBRANCH   1  35
TORSDOF 8
ENDMDL
MODEL 9
REMARK VINA RESULT:      -5.7     31.055     33.577
REMARK  Name = ZINC000003800008
REMARK  11 active torsions:
REMARK  status: ('A' for Active; 'I' for Inactive)
REMARK    1  A    between atoms: C2_2  and  C3_3
REMARK    2  A    between atoms: C3_3  and  N4_4
REMARK    3  A    between atoms: C7_7  and  C9_9
REMARK    4  A    between atoms: N11_11  and  C12_12
REMARK    5  A    between atoms: C12_12  and  C13_13
REMARK    6  A    between atoms: C13_13  and  C14_14
REMARK    7  A    between atoms: C14_14  and  N15_15
REMARK    8  A    between atoms: N15_15  and  C17_17
REMARK    9  A    between atoms: N15_15  and  C18_18
REMARK   10  A    between atoms: N21_21  and  C22_22
REMARK   11  A    between atoms: C22_22  and  C23_23
REMARK                            x       y       z     vdW  Elec       q    Type
REMARK                         _______ _______ _______ _____ _____    ______ ____
ROOT
ATOM      1  N   UNL     1      -0.507  18.388 -28.911  0.00  0.00    -0.380 N 
ATOM      2  C   UNL     1      -0.250  16.995 -29.291  0.00  0.00    +0.300 C 
ATOM      3  C   UNL     1       0.640  16.962 -30.535  0.00  0.00    -0.020 C 
ATOM      4  C   UNL     1       1.968  17.657 -30.221  0.00  0.00    +0.050 C 
ATOM      5  C   UNL     1       1.689  19.087 -29.748  0.00  0.00    +0.080 C 
ATOM      6  C   UNL     1       2.981  19.752 -29.381  0.00  0.00    -0.060 A 
ATOM      7  C   UNL     1       2.920  20.718 -28.373  0.00  0.00    -0.130 A 
ATOM      8  C   UNL     1       1.717  21.115 -27.644  0.00  0.00    -0.210 A 
ATOM      9  C   UNL     1       0.413  20.438 -27.979  0.00  0.00    +0.150 C 
ATOM     10  C   UNL     1       2.110  22.051 -26.793  0.00  0.00    +0.280 A 
ATOM     11  N   UNL     1       3.472  22.275 -26.922  0.00  0.00    -0.590 N 
ATOM     12  H   UNL     1       3.979  22.918 -26.403  0.00  0.00    +0.430 HD
ATOM     13  C   UNL     1       3.998  21.464 -27.882  0.00  0.00    +0.120 A 
ATOM     14  C   UNL     1       5.251  21.221 -28.443  0.00  0.00    +0.040 A 
ATOM     15  C   UNL     1       5.314  20.259 -29.442  0.00  0.00    +0.030 A 
ATOM     16  C   UNL     1       4.216  19.538 -29.907  0.00  0.00    +0.010 A 
ATOM     17  C   UNL     1       0.752  19.046 -28.540  0.00  0.00    +0.180 C 
ATOM     18  H   UNL     1      -0.923  18.877 -29.689  0.00  0.00    +0.420 HD
ENDROOT
BRANCH   3  19
ATOM     19  C   UNL     1       0.900  15.531 -30.931  0.00  0.00    +0.530 C 
ATOM     20  N   UNL     1       0.457  15.068 -32.117  0.00  0.00    -0.570 N 
ATOM     21  C   UNL     1      -0.177  15.897 -32.969  0.00  0.00    +0.690 C 
ATOM     22  N   UNL     1      -0.746  17.029 -32.510  0.00  0.00    -0.740 N 
ATOM     23  H   UNL     1      -0.632  17.288 -31.583  0.00  0.00    +0.410 HD
ATOM     24  O   UNL     1      -0.234  15.625 -34.151  0.00  0.00    -0.520 OA
ATOM     25  O   UNL     1       1.510  14.797 -30.183  0.00  0.00    -0.480 OA
BRANCH  22  26
ATOM     26  C   UNL     1      -1.540  17.868 -33.413  0.00  0.00    +0.280 C 
ATOM     27  C   UNL     1      -1.385  19.337 -33.012  0.00  0.00    +0.040 C 
ENDBRANCH  22  26
BRANCH  20  28
ATOM     28  C   UNL     1       0.664  13.663 -32.478  0.00  0.00    +0.340 C 
BRANCH  28  29
ATOM     29  C   UNL     1      -0.591  12.859 -32.133  0.00  0.00    +0.010 C 
BRANCH  29  30
ATOM     30  C   UNL     1      -1.283  12.414 -33.423  0.00  0.00    +0.270 C 
BRANCH  30  31
ATOM     31  N   UNL     1      -0.315  12.431 -34.528  0.00  0.00    -0.390 N 
ATOM     32  C   UNL     1      -0.974  12.907 -35.751  0.00  0.00    +0.320 C 
ATOM     33  C   UNL     1       0.201  11.073 -34.748  0.00  0.00    +0.330 C 
ATOM     34  H   UNL     1       0.451  13.047 -34.296  0.00  0.00    +0.430 HD
ENDBRANCH  30  31
ENDBRANCH  29  30
ENDBRANCH  28  29
ENDBRANCH  20  28
ENDBRANCH   3  19
BRANCH   1  35
ATOM     35  C   UNL     1      -1.429  18.420 -27.766  0.00  0.00    +0.300 C 
BRANCH  35  37
ATOM     36  C   UNL     1      -2.189  16.863 -26.044  0.00  0.00    +0.130 C 
ATOM     37  C   UNL     1      -1.504  17.048 -27.146  0.00  0.00    -0.110 C 
ENDBRANCH  35  37
ENDBRANCH   1  35
TORSDOF 8
ENDMDL
