REMARK  Name = ZINC000003800008
REMARK  11 active torsions:
REMARK  status: ('A' for Active; 'I' for Inactive)
REMARK    1  A    between atoms: C2_2  and  C3_3
REMARK    2  A    between atoms: C3_3  and  N4_4
REMARK    3  A    between atoms: C7_7  and  C9_9
REMARK    4  A    between atoms: N11_11  and  C12_12
REMARK    5  A    between atoms: C12_12  and  C13_13
REMARK    6  A    between atoms: C13_13  and  C14_14
REMARK    7  A    between atoms: C14_14  and  N15_15
REMARK    8  A    between atoms: N15_15  and  C17_17
REMARK    9  A    between atoms: N15_15  and  C18_18
REMARK   10  A    between atoms: N21_21  and  C22_22
REMARK   11  A    between atoms: C22_22  and  C23_23
REMARK                            x       y       z     vdW  Elec       q    Type
REMARK                         _______ _______ _______ _____ _____    ______ ____
ROOT
ATOM      1  N   UNL     1      -2.683  -1.580  -1.281  0.00  0.00    -0.380 N 
ATOM      2  C   UNL     1      -2.372  -0.846  -2.512  0.00  0.00    +0.300 C 
ATOM      3  C   UNL     1      -2.014  -1.838  -3.621  0.00  0.00    -0.020 C 
ATOM      4  C   UNL     1      -3.207  -2.765  -3.869  0.00  0.00    +0.050 C 
ATOM      5  C   UNL     1      -3.579  -3.470  -2.561  0.00  0.00    +0.080 C 
ATOM      6  C   UNL     1      -4.784  -4.332  -2.784  0.00  0.00    -0.060 A 
ATOM      7  C   UNL     1      -5.633  -4.512  -1.689  0.00  0.00    -0.130 A 
ATOM      8  C   UNL     1      -5.453  -3.920  -0.364  0.00  0.00    -0.210 A 
ATOM      9  C   UNL     1      -4.262  -3.027  -0.128  0.00  0.00    +0.150 C 
ATOM     10  C   UNL     1      -6.475  -4.352   0.359  0.00  0.00    +0.280 A 
ATOM     11  N   UNL     1      -7.293  -5.169  -0.406  0.00  0.00    -0.590 N 
ATOM     12  H   UNL     1      -8.100  -5.601  -0.085  0.00  0.00    +0.430 HD
ATOM     13  C   UNL     1      -6.803  -5.280  -1.672  0.00  0.00    +0.120 A 
ATOM     14  C   UNL     1      -7.163  -5.922  -2.856  0.00  0.00    +0.040 A 
ATOM     15  C   UNL     1      -6.323  -5.742  -3.946  0.00  0.00    +0.030 A 
ATOM     16  C   UNL     1      -5.162  -4.971  -3.923  0.00  0.00    +0.010 A 
ATOM     17  C   UNL     1      -3.869  -2.421  -1.486  0.00  0.00    +0.180 C 
ATOM     18  H   UNL     1      -1.899  -2.163  -1.031  0.00  0.00    +0.420 HD
ENDROOT
BRANCH   3  19
ATOM     19  C   UNL     1      -1.688  -1.085  -4.885  0.00  0.00    +0.530 C 
ATOM     20  N   UNL     1      -1.465  -1.757  -6.032  0.00  0.00    -0.570 N 
ATOM     21  C   UNL     1      -1.581  -3.099  -6.059  0.00  0.00    +0.690 C 
ATOM     22  N   UNL     1      -1.492  -3.807  -4.916  0.00  0.00    -0.740 N 
ATOM     23  H   UNL     1      -1.425  -3.347  -4.065  0.00  0.00    +0.410 HD
ATOM     24  O   UNL     1      -1.767  -3.671  -7.115  0.00  0.00    -0.520 OA
ATOM     25  O   UNL     1      -1.627   0.126  -4.871  0.00  0.00    -0.480 OA
BRANCH  22  26
ATOM     26  C   UNL     1      -1.495  -5.272  -4.959  0.00  0.00    +0.280 C 
ATOM     27  C   UNL     1      -1.493  -5.824  -3.532  0.00  0.00    +0.040 C 
ENDBRANCH  22  26
BRANCH  20  28
ATOM     28  C   UNL     1      -1.096  -1.028  -7.248  0.00  0.00    +0.340 C 
BRANCH  28  29
ATOM     29  C   UNL     1       0.427  -0.903  -7.325  0.00  0.00    +0.010 C 
BRANCH  29  30
ATOM     30  C   UNL     1       0.813  -0.142  -8.595  0.00  0.00    +0.270 C 
BRANCH  30  31
ATOM     31  N   UNL     1       2.275  -0.022  -8.668  0.00  0.00    -0.390 N 
ATOM     32  C   UNL     1       2.755   0.810  -7.557  0.00  0.00    +0.320 C 
ATOM     33  C   UNL     1       2.651   0.602  -9.944  0.00  0.00    +0.330 C 
ATOM     34  H   UNL     1       2.692  -0.939  -8.607  0.00  0.00    +0.430 HD
ENDBRANCH  30  31
ENDBRANCH  29  30
ENDBRANCH  28  29
ENDBRANCH  20  28
ENDBRANCH   3  19
BRANCH   1  35
ATOM     35  C   UNL     1      -2.946  -0.624  -0.196  0.00  0.00    +0.300 C 
BRANCH  35  37
ATOM     36  C   UNL     1      -1.991   1.623  -0.138  0.00  0.00    +0.130 C 
ATOM     37  C   UNL     1      -1.786   0.330  -0.077  0.00  0.00    -0.110 C 
ENDBRANCH  35  37
ENDBRANCH   1  35
TORSDOF 8
