@<TRIPOS>MOLECULE
ZINC000003800008
  72   75    0    0    0
SMALL
USER_CHARGES
NO_NAME
@<TRIPOS>ATOM
    1 C1       -1.9914     1.6225    -0.1384 C.2    1 <0>      -0.1000
    2 C2       -1.7855     0.3303    -0.0766 C.2    1 <0>      -0.2400
    3 C3       -2.9455    -0.6242    -0.1963 C.3    1 <0>       0.0200
    4 N4       -2.6834    -1.5800    -1.2806 N.4    1 <0>      -0.3800
    5 H5       -1.8985    -2.1627    -1.0309 H      1 <0>       0.4200
    6 C6       -2.3724    -0.8457    -2.5123 C.3    1 <0>       0.0100
    7 C7       -2.0141    -1.8378    -3.6212 C.3    1 <0>      -0.1500
    8 H8       -1.1505    -2.4289    -3.3163 H      1 <0>       0.1300
    9 C9       -1.6882    -1.0846    -4.8851 C.2    1 <0>       0.5300
   10 O10      -1.6269     0.1261    -4.8706 O.2    1 <0>      -0.4800
   11 N11      -1.4649    -1.7569    -6.0317 N.am   1 <0>      -0.5700
   12 C12      -1.0956    -1.0285    -7.2479 C.3    1 <0>       0.1100
   13 C13       0.4273    -0.9030    -7.3246 C.3    1 <0>      -0.1700
   14 C14       0.8130    -0.1422    -8.5948 C.3    1 <0>      -0.0100
   15 N15       2.2752    -0.0218    -8.6685 N.4    1 <0>      -0.3900
   16 H16       2.6918    -0.9387    -8.6065 H      1 <0>       0.4300
   17 C17       2.6515     0.6018    -9.9442 C.3    1 <0>      -0.0500
   18 C18       2.7546     0.8100    -7.5566 C.3    1 <0>      -0.0500
   19 C19      -1.5814    -3.0993    -6.0594 C.2    1 <0>       0.6900
   20 O20      -1.7674    -3.6715    -7.1154 O.2    1 <0>      -0.5200
   21 N21      -1.4916    -3.8072    -4.9160 N.am   1 <0>      -0.7400
   22 C22      -1.4946    -5.2716    -4.9590 C.3    1 <0>       0.1100
   23 C23      -1.4927    -5.8237    -3.5321 C.3    1 <0>      -0.1800
   24 C24      -3.2069    -2.7648    -3.8692 C.3    1 <0>      -0.2300
   25 C25      -3.5790    -3.4696    -2.5608 C.3    1 <0>      -0.0300
   26 H26      -2.7451    -4.0939    -2.2398 H      1 <0>       0.1100
   27 C27      -4.7842    -4.3324    -2.7839 C.ar   1 <0>      -0.0600
   28 C28      -5.6332    -4.5116    -1.6894 C.ar   1 <0>      -0.1300
   29 C29      -5.4527    -3.9203    -0.3636 C.2    1 <0>      -0.2100
   30 C30      -6.4746    -4.3522     0.3592 C.2    1 <0>       0.1000
   31 N31      -7.2934    -5.1691    -0.4061 N.pl3  1 <0>      -0.5900
   32 C32      -6.8032    -5.2797    -1.6721 C.ar   1 <0>       0.1200
   33 C33      -7.1627    -5.9224    -2.8556 C.ar   1 <0>      -0.1000
   34 C34      -6.3228    -5.7423    -3.9463 C.ar   1 <0>      -0.1000
   35 C35      -5.1618    -4.9707    -3.9228 C.ar   1 <0>      -0.1100
   36 C36      -4.2617    -3.0268    -0.1280 C.3    1 <0>      -0.0500
   37 C37      -3.8693    -2.4215    -1.4857 C.3    1 <0>       0.0400
   38 H38      -4.6833    -1.7799    -1.8233 H      1 <0>       0.1400
   39 H39      -1.1601     2.3065    -0.0526 H      1 <0>       0.1200
   40 H40      -2.9920     2.0037    -0.2796 H      1 <0>       0.1100
   41 H41      -0.7843    -0.0511     0.0602 H      1 <0>       0.1300
   42 H42      -3.0698    -1.1646     0.7422 H      1 <0>       0.1500
   43 H43      -3.8549    -0.0651    -0.4167 H      1 <0>       0.1300
   44 H44      -3.2404    -0.2601    -2.8152 H      1 <0>       0.1400
   45 H45      -1.5285    -0.1791    -2.3345 H      1 <0>       0.1500
   46 H46      -1.4600    -1.5703    -8.1207 H      1 <0>       0.1200
   47 H47      -1.5414    -0.0340    -7.2254 H      1 <0>       0.1100
   48 H48       0.7917    -0.3612    -6.4518 H      1 <0>       0.0900
   49 H49       0.8731    -1.8974    -7.3472 H      1 <0>       0.0900
   50 H50       0.4487    -0.6841    -9.4676 H      1 <0>       0.1400
   51 H51       0.3672     0.8522    -8.5723 H      1 <0>       0.1400
   52 H52       2.2015     1.5923   -10.0111 H      1 <0>       0.1200
   53 H53       3.7365     0.6912    -9.9989 H      1 <0>       0.1300
   54 H54       2.2958    -0.0154   -10.7692 H      1 <0>       0.1300
   55 H55       2.3047     1.8005    -7.6235 H      1 <0>       0.1200
   56 H56       2.4754     0.3473    -6.6100 H      1 <0>       0.1200
   57 H57       3.8396     0.8994    -7.6113 H      1 <0>       0.1300
   58 H58      -1.4251    -3.3471    -4.0646 H      1 <0>       0.4100
   59 H59      -2.3863    -5.6180    -5.4814 H      1 <0>       0.0900
   60 H60      -0.6064    -5.6214    -5.4851 H      1 <0>       0.0800
   61 H61      -0.6676    -5.3825    -2.9729 H      1 <0>       0.0600
   62 H62      -2.4356    -5.5752    -3.0451 H      1 <0>       0.0700
   63 H63      -1.3734    -6.9067    -3.5617 H      1 <0>       0.0900
   64 H64      -4.0561    -2.1791    -4.2214 H      1 <0>       0.1000
   65 H65      -2.9402    -3.5084    -4.6202 H      1 <0>       0.1800
   66 H66      -6.6459    -4.1039     1.3962 H      1 <0>       0.1800
   67 H67      -8.1004    -5.6011    -0.0851 H      1 <0>       0.4300
   68 H68      -8.0524    -6.5311    -2.9211 H      1 <0>       0.1400
   69 H69      -6.5854    -6.2318    -4.8725 H      1 <0>       0.1300
   70 H70      -4.5596    -4.8792    -4.8146 H      1 <0>       0.1200
   71 H71      -4.5305    -2.2295     0.5650 H      1 <0>       0.1000
   72 H72      -3.4383    -3.6110     0.2830 H      1 <0>       0.1000
@<TRIPOS>BOND
   1    1    2 2
   2    1   39 1
   3    1   40 1
   4    2    3 1
   5    2   41 1
   6    3    4 1
   7    3   42 1
   8    3   43 1
   9    4    5 1
  10    4   37 1
  11    4    6 1
  12    6    7 1
  13    6   44 1
  14    6   45 1
  15    7    8 1
  16    7    9 1
  17    7   24 1
  18    9   10 2
  19    9   11 am
  20   11   12 1
  21   11   19 am
  22   12   13 1
  23   12   46 1
  24   12   47 1
  25   13   14 1
  26   13   48 1
  27   13   49 1
  28   14   15 1
  29   14   50 1
  30   14   51 1
  31   15   16 1
  32   15   17 1
  33   15   18 1
  34   17   52 1
  35   17   53 1
  36   17   54 1
  37   18   55 1
  38   18   56 1
  39   18   57 1
  40   19   20 2
  41   19   21 am
  42   21   22 1
  43   21   58 1
  44   22   23 1
  45   22   59 1
  46   22   60 1
  47   23   61 1
  48   23   62 1
  49   23   63 1
  50   24   25 1
  51   24   64 1
  52   24   65 1
  53   25   26 1
  54   25   37 1
  55   25   27 1
  56   27   35 ar
  57   27   28 ar
  58   28   32 ar
  59   28   29 1
  60   29   30 2
  61   29   36 1
  62   30   31 1
  63   30   66 1
  64   31   32 1
  65   31   67 1
  66   32   33 ar
  67   33   34 ar
  68   33   68 1
  69   34   35 ar
  70   34   69 1
  71   35   70 1
  72   36   37 1
  73   36   71 1
  74   36   72 1
  75   37   38 1
