REMARK  Name = ZINC000003871889
REMARK  9 active torsions:
REMARK  status: ('A' for Active; 'I' for Inactive)
REMARK    1  A    between atoms: C1_1  and  C2_2
REMARK    2  A    between atoms: C2_2  and  C3_3
REMARK    3  A    between atoms: C7_7  and  N9_9
REMARK    4  A    between atoms: C10_10  and  C12_12
REMARK    5  A    between atoms: C12_12  and  C14_14
REMARK    6  A    between atoms: C12_12  and  C26_26
REMARK    7  A    between atoms: C14_14  and  O16_16
REMARK    8  A    between atoms: O16_16  and  C17_17
REMARK    9  A    between atoms: C35_35  and  C37_37
REMARK                            x       y       z     vdW  Elec       q    Type
REMARK                         _______ _______ _______ _____ _____    ______ ____
ROOT
ATOM      1  C   UNL     1       2.720  -5.271  -1.722  0.00  0.00    +0.080 C 
ENDROOT
BRANCH   1   2
ATOM      2  C   UNL     1       2.045  -4.898  -3.016  0.00  0.00    -0.090 A 
ATOM      3  C   UNL     1       2.794  -4.412  -4.071  0.00  0.00    +0.020 A 
ATOM      4  C   UNL     1       2.175  -4.070  -5.259  0.00  0.00    +0.010 A 
ATOM      5  C   UNL     1       0.807  -4.214  -5.392  0.00  0.00    +0.010 A 
ATOM      6  C   UNL     1       0.057  -4.701  -4.337  0.00  0.00    +0.020 A 
ATOM      7  C   UNL     1       0.677  -5.048  -3.151  0.00  0.00    +0.040 A 
ENDBRANCH   1   2
BRANCH   1  10
ATOM      8  N   UNL     1       2.688  -2.963  -0.834  0.00  0.00    -0.690 N 
ATOM      9  H   UNL     1       1.730  -2.953  -0.981  0.00  0.00    +0.420 HD
ATOM     10  C   UNL     1       3.406  -4.060  -1.146  0.00  0.00    +0.530 C 
ATOM     11  O   UNL     1       4.605  -4.072  -0.963  0.00  0.00    -0.490 OA
BRANCH   8  16
ATOM     12  C   UNL     1      -0.036   1.559  -0.138  0.00  0.00    +0.070 C 
ATOM     13  C   UNL     1      -0.002   0.030  -0.108  0.00  0.00    +0.030 C 
ATOM     14  S   UNL     1       1.059  -0.644  -1.456  0.00  0.00    -0.300 S 
ATOM     15  C   UNL     1       2.623  -0.470  -0.517  0.00  0.00    +0.230 C 
ATOM     16  CA  UNL     1       3.356  -1.785  -0.275  0.00  0.00    +0.250 C 
ATOM     17  C   UNL     1       2.996  -1.485   1.156  0.00  0.00    +0.480 C 
ATOM     18  O   UNL     1       3.300  -2.029   2.197  0.00  0.00    -0.440 OA
ATOM     19  N   UNL     1       2.219  -0.391   0.893  0.00  0.00    -0.480 N 
ATOM     20  C   UNL     1      -1.415  -0.555  -0.165  0.00  0.00    +0.100 C 
ATOM     21  CA  UNL     1       0.776  -0.493   1.129  0.00  0.00    +0.100 C 
BRANCH  21  22
ATOM     22  C   UNL     1       0.409   0.317   2.346  0.00  0.00    +0.520 C 
ATOM     23  OXT UNL     1      -0.715   0.244   2.811  0.00  0.00    -0.680 OA
ATOM     24  O   UNL     1       1.238   1.046   2.865  0.00  0.00    -0.660 OA
ENDBRANCH  21  22
ENDBRANCH   8  16
ENDBRANCH   1  10
BRANCH   1  25
ATOM     25  C   UNL     1       3.738  -6.351  -1.979  0.00  0.00    +0.470 C 
ATOM     26  O   UNL     1       4.903  -6.157  -1.722  0.00  0.00    -0.430 OA
BRANCH  25  27
ATOM     27  O   UNL     1       3.352  -7.529  -2.495  0.00  0.00    -0.290 OA
BRANCH  27  28
ATOM     28  C   UNL     1       4.332  -8.421  -2.798  0.00  0.00    +0.090 A 
ATOM     29  C   UNL     1       4.726  -8.600  -4.116  0.00  0.00    +0.020 A 
ATOM     30  C   UNL     1       5.722  -9.507  -4.419  0.00  0.00    +0.040 A 
ATOM     31  C   UNL     1       6.330 -10.239  -3.413  0.00  0.00    -0.100 A 
ATOM     32  C   UNL     1       7.429 -11.278  -3.485  0.00  0.00    +0.080 C 
ATOM     33  C   UNL     1       7.968 -11.396  -2.043  0.00  0.00    +0.030 C 
ATOM     34  C   UNL     1       6.749 -10.970  -1.198  0.00  0.00    +0.080 C 
ATOM     35  C   UNL     1       5.939 -10.062  -2.098  0.00  0.00    -0.080 A 
ATOM     36  C   UNL     1       4.945  -9.150  -1.791  0.00  0.00    +0.030 A 
ENDBRANCH  27  28
ENDBRANCH  25  27
ENDBRANCH   1  25
TORSDOF 7
