@<TRIPOS>MOLECULE
ZINC000003871889
  60   64    0    0    0
SMALL
USER_CHARGES
NO_NAME
@<TRIPOS>ATOM
    1 C1       -0.0364     1.5590    -0.1382 C.3    1 <0>      -0.1300
    2 C2       -0.0022     0.0297    -0.1080 C.3    1 <0>       0.0300
    3 C3       -1.4147    -0.5555    -0.1651 C.3    1 <0>      -0.1200
    4 S4        1.0586    -0.6437    -1.4558 S.3    1 <0>      -0.3000
    5 C5        2.6235    -0.4704    -0.5170 C.3    1 <0>       0.0800
    6 H6        3.2569     0.3469    -0.8618 H      1 <0>       0.1500
    7 C7        3.3562    -1.7849    -0.2745 C.3    1 <0>       0.1000
    8 H8        4.4248    -1.7508    -0.4866 H      1 <0>       0.1500
    9 N9        2.6885    -2.9626    -0.8343 N.am   1 <0>      -0.6900
   10 C10       3.4064    -4.0599    -1.1457 C.2    1 <0>       0.5300
   11 O11       4.6053    -4.0723    -0.9626 O.2    1 <0>      -0.4900
   12 C12       2.7196    -5.2714    -1.7215 C.3    1 <0>      -0.0600
   13 H13       1.9739    -5.6363    -1.0151 H      1 <0>       0.1400
   14 C14       3.7384    -6.3515    -1.9791 C.2    1 <0>       0.4700
   15 O15       4.9029    -6.1574    -1.7216 O.2    1 <0>      -0.4300
   16 O16       3.3523    -7.5294    -2.4948 O.3    1 <0>      -0.2900
   17 C17       4.3322    -8.4212    -2.7983 C.ar   1 <0>       0.0900
   18 C18       4.7259    -8.6000    -4.1162 C.ar   1 <0>      -0.1100
   19 C19       5.7219    -9.5066    -4.4194 C.ar   1 <0>      -0.0900
   20 C20       6.3301   -10.2386    -3.4132 C.ar   1 <0>      -0.1000
   21 C21       7.4286   -11.2779    -3.4847 C.3    1 <0>      -0.0800
   22 C22       7.9676   -11.3959    -2.0433 C.3    1 <0>      -0.1200
   23 C23       6.7486   -10.9705    -1.1977 C.3    1 <0>      -0.0800
   24 C24       5.9392   -10.0620    -2.0984 C.ar   1 <0>      -0.0800
   25 C25       4.9449    -9.1503    -1.7908 C.ar   1 <0>      -0.1000
   26 C26       2.0447    -4.8983    -3.0163 C.ar   1 <0>      -0.0900
   27 C27       2.7941    -4.4121    -4.0712 C.ar   1 <0>      -0.1000
   28 C28       2.1750    -4.0699    -5.2589 C.ar   1 <0>      -0.1100
   29 C29       0.8067    -4.2142    -5.3917 C.ar   1 <0>      -0.1100
   30 C30       0.0574    -4.7012    -4.3371 C.ar   1 <0>      -0.1100
   31 C31       0.6770    -5.0475    -3.1509 C.ar   1 <0>      -0.0900
   32 C32       2.9958    -1.4853     1.1560 C.2    1 <0>       0.4800
   33 O33       3.2998    -2.0285     2.1969 O.2    1 <0>      -0.4400
   34 N34       2.2190    -0.3905     0.8931 N.am   1 <0>      -0.4800
   35 C35       0.7761    -0.4934     1.1293 C.3    1 <0>       0.0300
   36 H36       0.5104    -1.5372     1.2964 H      1 <0>       0.0700
   37 C37       0.4095     0.3169     2.3459 C.2    1 <0>       0.5200
   38 O38       1.2377     1.0455     2.8654 O.co2  1 <0>      -0.6600
   39 O39      -0.7152     0.2438     2.8108 O.co2  1 <0>      -0.6800
   40 H40       0.9822     1.9444    -0.1812 H      1 <0>       0.0600
   41 H41      -0.5886     1.8928    -1.0167 H      1 <0>       0.0600
   42 H42      -0.5273     1.9293     0.7619 H      1 <0>       0.0800
   43 H43      -1.9076    -0.2263    -1.0798 H      1 <0>       0.0600
   44 H44      -1.3577    -1.6440    -0.1546 H      1 <0>       0.0600
   45 H45      -1.9849    -0.2132     0.6985 H      1 <0>       0.1000
   46 H46       1.7297    -2.9527    -0.9807 H      1 <0>       0.4200
   47 H47       4.2539    -8.0314    -4.9038 H      1 <0>       0.1300
   48 H48       6.0279    -9.6458    -5.4458 H      1 <0>       0.1300
   49 H49       7.0237   -12.2340    -3.8166 H      1 <0>       0.0800
   50 H50       8.2192   -10.9469    -4.1582 H      1 <0>       0.0800
   51 H51       8.2545   -12.4235    -1.8199 H      1 <0>       0.0800
   52 H52       8.8048   -10.7159    -1.8859 H      1 <0>       0.0700
   53 H53       6.1610   -11.8439    -0.9150 H      1 <0>       0.0800
   54 H54       7.0748   -10.4294    -0.3095 H      1 <0>       0.0800
   55 H55       4.6431    -9.0086    -0.7636 H      1 <0>       0.1300
   56 H56       3.8632    -4.2994    -3.9675 H      1 <0>       0.1200
   57 H57       2.7604    -3.6894    -6.0829 H      1 <0>       0.1200
   58 H58       0.3229    -3.9461    -6.3194 H      1 <0>       0.1200
   59 H59      -1.0117    -4.8136    -4.4407 H      1 <0>       0.1300
   60 H60       0.0917    -5.4280    -2.3269 H      1 <0>       0.1300
@<TRIPOS>BOND
   1    1    2 1
   2    1   40 1
   3    1   41 1
   4    1   42 1
   5    2   35 1
   6    2    3 1
   7    2    4 1
   8    3   43 1
   9    3   44 1
  10    3   45 1
  11    4    5 1
  12    5    6 1
  13    5   34 1
  14    5    7 1
  15    7    8 1
  16    7    9 1
  17    7   32 1
  18    9   10 am
  19    9   46 1
  20   10   11 2
  21   10   12 1
  22   12   13 1
  23   12   14 1
  24   12   26 1
  25   14   15 2
  26   14   16 1
  27   16   17 1
  28   17   25 ar
  29   17   18 ar
  30   18   19 ar
  31   18   47 1
  32   19   20 ar
  33   19   48 1
  34   20   24 ar
  35   20   21 1
  36   21   22 1
  37   21   49 1
  38   21   50 1
  39   22   23 1
  40   22   51 1
  41   22   52 1
  42   23   24 1
  43   23   53 1
  44   23   54 1
  45   24   25 ar
  46   25   55 1
  47   26   31 ar
  48   26   27 ar
  49   27   28 ar
  50   27   56 1
  51   28   29 ar
  52   28   57 1
  53   29   30 ar
  54   29   58 1
  55   30   31 ar
  56   30   59 1
  57   31   60 1
  58   32   33 2
  59   32   34 am
  60   34   35 1
  61   35   36 1
  62   35   37 1
  63   37   38 ar
  64   37   39 ar
