MODEL 1
REMARK VINA RESULT:      -8.3      0.000      0.000
REMARK  Name = ZINC000003871889
REMARK  9 active torsions:
REMARK  status: ('A' for Active; 'I' for Inactive)
REMARK    1  A    between atoms: C1_1  and  C2_2
REMARK    2  A    between atoms: C2_2  and  C3_3
REMARK    3  A    between atoms: C7_7  and  N9_9
REMARK    4  A    between atoms: C10_10  and  C12_12
REMARK    5  A    between atoms: C12_12  and  C14_14
REMARK    6  A    between atoms: C12_12  and  C26_26
REMARK    7  A    between atoms: C14_14  and  O16_16
REMARK    8  A    between atoms: O16_16  and  C17_17
REMARK    9  A    between atoms: C35_35  and  C37_37
REMARK                            x       y       z     vdW  Elec       q    Type
REMARK                         _______ _______ _______ _____ _____    ______ ____
ROOT
ATOM      1  C   UNL     1      -0.062  17.392 -29.766  0.00  0.00    +0.080 C 
ENDROOT
BRANCH   1   2
ATOM      2  C   UNL     1       1.144  18.229 -30.102  0.00  0.00    -0.090 A 
ATOM      3  C   UNL     1       1.140  19.027 -31.230  0.00  0.00    +0.020 A 
ATOM      4  C   UNL     1       2.247  19.796 -31.538  0.00  0.00    +0.010 A 
ATOM      5  C   UNL     1       3.359  19.766 -30.717  0.00  0.00    +0.010 A 
ATOM      6  C   UNL     1       3.364  18.969 -29.587  0.00  0.00    +0.020 A 
ATOM      7  C   UNL     1       2.254  18.204 -29.277  0.00  0.00    +0.040 A 
ENDBRANCH   1   2
BRANCH   1  10
ATOM      8  N   UNL     1      -1.508  17.042 -27.791  0.00  0.00    -0.690 N 
ATOM      9  H   UNL     1      -1.793  16.204 -28.186  0.00  0.00    +0.420 HD
ATOM     10  C   UNL     1      -0.617  17.822 -28.434  0.00  0.00    +0.530 C 
ATOM     11  O   UNL     1      -0.262  18.871 -27.939  0.00  0.00    -0.490 OA
BRANCH   8  16
ATOM     12  C   UNL     1      -6.680  18.217 -27.321  0.00  0.00    +0.070 C 
ATOM     13  C   UNL     1      -5.583  17.352 -27.943  0.00  0.00    +0.030 C 
ATOM     14  S   UNL     1      -4.060  18.336 -28.273  0.00  0.00    -0.300 S 
ATOM     15  C   UNL     1      -3.399  18.165 -26.573  0.00  0.00    +0.230 C 
ATOM     16  CA  UNL     1      -2.048  17.461 -26.495  0.00  0.00    +0.250 C 
ATOM     17  C   UNL     1      -2.868  16.411 -25.792  0.00  0.00    +0.480 C 
ATOM     18  O   UNL     1      -2.552  15.389 -25.219  0.00  0.00    -0.440 OA
ATOM     19  N   UNL     1      -4.085  16.995 -26.008  0.00  0.00    -0.480 N 
ATOM     20  C   UNL     1      -6.082  16.653 -29.210  0.00  0.00    +0.100 C 
ATOM     21  CA  UNL     1      -5.021  16.330 -26.918  0.00  0.00    +0.100 C 
BRANCH  21  22
ATOM     22  C   UNL     1      -6.151  15.728 -26.122  0.00  0.00    +0.520 C 
ATOM     23  OXT UNL     1      -6.787  14.793 -26.577  0.00  0.00    -0.680 OA
ATOM     24  O   UNL     1      -6.429  16.178 -25.023  0.00  0.00    -0.660 OA
ENDBRANCH  21  22
ENDBRANCH   8  16
ENDBRANCH   1  10
BRANCH   1  25
ATOM     25  C   UNL     1       0.335  15.941 -29.701  0.00  0.00    +0.470 C 
ATOM     26  O   UNL     1      -0.311  15.167 -29.034  0.00  0.00    -0.430 OA
BRANCH  25  27
ATOM     27  O   UNL     1       1.407  15.506 -30.383  0.00  0.00    -0.290 OA
BRANCH  27  28
ATOM     28  C   UNL     1       1.176  14.674 -31.433  0.00  0.00    +0.090 A 
ATOM     29  C   UNL     1       1.531  13.336 -31.350  0.00  0.00    +0.020 A 
ATOM     30  C   UNL     1       1.294  12.494 -32.419  0.00  0.00    +0.040 A 
ATOM     31  C   UNL     1       0.703  12.980 -33.573  0.00  0.00    -0.100 A 
ATOM     32  C   UNL     1       0.343  12.272 -34.862  0.00  0.00    +0.080 C 
ATOM     33  C   UNL     1      -0.661  13.208 -35.570  0.00  0.00    +0.030 C 
ATOM     34  C   UNL     1      -0.275  14.593 -35.009  0.00  0.00    +0.080 C 
ATOM     35  C   UNL     1       0.348  14.315 -33.657  0.00  0.00    -0.080 A 
ATOM     36  C   UNL     1       0.579  15.159 -32.586  0.00  0.00    +0.030 A 
ENDBRANCH  27  28
ENDBRANCH  25  27
ENDBRANCH   1  25
TORSDOF 7
ENDMDL
MODEL 2
REMARK VINA RESULT:      -8.3     19.501     22.014
REMARK  Name = ZINC000003871889
REMARK  9 active torsions:
REMARK  status: ('A' for Active; 'I' for Inactive)
REMARK    1  A    between atoms: C1_1  and  C2_2
REMARK    2  A    between atoms: C2_2  and  C3_3
REMARK    3  A    between atoms: C7_7  and  N9_9
REMARK    4  A    between atoms: C10_10  and  C12_12
REMARK    5  A    between atoms: C12_12  and  C14_14
REMARK    6  A    between atoms: C12_12  and  C26_26
REMARK    7  A    between atoms: C14_14  and  O16_16
REMARK    8  A    between atoms: O16_16  and  C17_17
REMARK    9  A    between atoms: C35_35  and  C37_37
REMARK                            x       y       z     vdW  Elec       q    Type
REMARK                         _______ _______ _______ _____ _____    ______ ____
ROOT
ATOM      1  C   UNL     1       3.501  -1.829 -32.554  0.00  0.00    +0.080 C 
ENDROOT
BRANCH   1   2
ATOM      2  C   UNL     1       3.304  -2.547 -31.244  0.00  0.00    -0.090 A 
ATOM      3  C   UNL     1       4.055  -2.189 -30.140  0.00  0.00    +0.020 A 
ATOM      4  C   UNL     1       3.875  -2.847 -28.938  0.00  0.00    +0.010 A 
ATOM      5  C   UNL     1       2.944  -3.863 -28.839  0.00  0.00    +0.010 A 
ATOM      6  C   UNL     1       2.191  -4.221 -29.943  0.00  0.00    +0.020 A 
ATOM      7  C   UNL     1       2.368  -3.559 -31.144  0.00  0.00    +0.040 A 
ENDBRANCH   1   2
BRANCH   1  10
ATOM      8  N   UNL     1       2.178  -2.457 -34.547  0.00  0.00    -0.690 N 
ATOM      9  H   UNL     1       2.978  -2.868 -34.910  0.00  0.00    +0.420 HD
ATOM     10  C   UNL     1       2.217  -1.858 -33.340  0.00  0.00    +0.530 C 
ATOM     11  O   UNL     1       1.217  -1.342 -32.887  0.00  0.00    -0.490 OA
BRANCH   8  16
ATOM     12  C   UNL     1       1.649  -5.797 -38.660  0.00  0.00    +0.070 C 
ATOM     13  C   UNL     1       2.196  -5.517 -37.259  0.00  0.00    +0.030 C 
ATOM     14  S   UNL     1       2.721  -3.760 -37.082  0.00  0.00    -0.300 S 
ATOM     15  C   UNL     1       1.043  -3.141 -36.683  0.00  0.00    +0.230 C 
ATOM     16  CA  UNL     1       0.929  -2.483 -35.312  0.00  0.00    +0.250 C 
ATOM     17  C   UNL     1       0.057  -3.680 -35.039  0.00  0.00    +0.480 C 
ATOM     18  O   UNL     1      -0.635  -3.975 -34.087  0.00  0.00    -0.440 OA
ATOM     19  N   UNL     1       0.297  -4.319 -36.223  0.00  0.00    -0.480 N 
ATOM     20  C   UNL     1       3.334  -6.478 -36.908  0.00  0.00    +0.100 C 
ATOM     21  CA  UNL     1       1.068  -5.566 -36.193  0.00  0.00    +0.100 C 
BRANCH  21  22
ATOM     22  C   UNL     1       0.150  -6.729 -36.470  0.00  0.00    +0.520 C 
ATOM     23  OXT UNL     1       0.507  -7.864 -36.206  0.00  0.00    -0.680 OA
ATOM     24  O   UNL     1      -0.950  -6.533 -36.960  0.00  0.00    -0.660 OA
ENDBRANCH  21  22
ENDBRANCH   8  16
ENDBRANCH   1  10
BRANCH   1  25
ATOM     25  C   UNL     1       4.589  -2.510 -33.342  0.00  0.00    +0.470 C 
ATOM     26  O   UNL     1       4.748  -3.704 -33.246  0.00  0.00    -0.430 OA
BRANCH  25  27
ATOM     27  O   UNL     1       5.383  -1.791 -34.151  0.00  0.00    -0.290 OA
BRANCH  27  28
ATOM     28  C   UNL     1       6.519  -2.391 -34.594  0.00  0.00    +0.090 A 
ATOM     29  C   UNL     1       7.580  -2.601 -33.725  0.00  0.00    +0.020 A 
ATOM     30  C   UNL     1       8.732  -3.212 -34.179  0.00  0.00    +0.040 A 
ATOM     31  C   UNL     1       8.833  -3.617 -35.500  0.00  0.00    -0.100 A 
ATOM     32  C   UNL     1       9.971  -4.298 -36.231  0.00  0.00    +0.080 C 
ATOM     33  C   UNL     1       9.337  -4.876 -37.515  0.00  0.00    +0.030 C 
ATOM     34  C   UNL     1       8.134  -3.937 -37.741  0.00  0.00    +0.080 C 
ATOM     35  C   UNL     1       7.777  -3.409 -36.369  0.00  0.00    -0.080 A 
ATOM     36  C   UNL     1       6.620  -2.802 -35.914  0.00  0.00    +0.030 A 
ENDBRANCH  27  28
ENDBRANCH  25  27
ENDBRANCH   1  25
TORSDOF 7
ENDMDL
MODEL 3
REMARK VINA RESULT:      -8.3      3.870      7.679
REMARK  Name = ZINC000003871889
REMARK  9 active torsions:
REMARK  status: ('A' for Active; 'I' for Inactive)
REMARK    1  A    between atoms: C1_1  and  C2_2
REMARK    2  A    between atoms: C2_2  and  C3_3
REMARK    3  A    between atoms: C7_7  and  N9_9
REMARK    4  A    between atoms: C10_10  and  C12_12
REMARK    5  A    between atoms: C12_12  and  C14_14
REMARK    6  A    between atoms: C12_12  and  C26_26
REMARK    7  A    between atoms: C14_14  and  O16_16
REMARK    8  A    between atoms: O16_16  and  C17_17
REMARK    9  A    between atoms: C35_35  and  C37_37
REMARK                            x       y       z     vdW  Elec       q    Type
REMARK                         _______ _______ _______ _____ _____    ______ ____
ROOT
ATOM      1  C   UNL     1       1.748  17.438 -29.885  0.00  0.00    +0.080 C 
ENDROOT
BRANCH   1   2
ATOM      2  C   UNL     1       0.549  17.634 -28.994  0.00  0.00    -0.090 A 
ATOM      3  C   UNL     1      -0.124  16.538 -28.490  0.00  0.00    +0.020 A 
ATOM      4  C   UNL     1      -1.224  16.718 -27.672  0.00  0.00    +0.010 A 
ATOM      5  C   UNL     1      -1.651  17.994 -27.359  0.00  0.00    +0.010 A 
ATOM      6  C   UNL     1      -0.978  19.092 -27.863  0.00  0.00    +0.020 A 
ATOM      7  C   UNL     1       0.126  18.912 -28.676  0.00  0.00    +0.040 A 
ENDBRANCH   1   2
BRANCH   1  10
ATOM      8  N   UNL     1       1.543  15.471 -31.371  0.00  0.00    -0.690 N 
ATOM      9  H   UNL     1       1.159  16.057 -32.041  0.00  0.00    +0.420 HD
ATOM     10  C   UNL     1       1.921  15.970 -30.177  0.00  0.00    +0.530 C 
ATOM     11  O   UNL     1       2.401  15.237 -29.338  0.00  0.00    -0.490 OA
BRANCH   8  16
ATOM     12  C   UNL     1      -2.363  12.760 -33.766  0.00  0.00    +0.070 C 
ATOM     13  C   UNL     1      -1.568  14.058 -33.617  0.00  0.00    +0.030 C 
ATOM     14  S   UNL     1      -1.089  14.353 -31.862  0.00  0.00    -0.300 S 
ATOM     15  C   UNL     1       0.410  13.300 -31.936  0.00  0.00    +0.230 C 
ATOM     16  CA  UNL     1       1.710  14.044 -31.654  0.00  0.00    +0.250 C 
ATOM     17  C   UNL     1       1.968  13.722 -33.102  0.00  0.00    +0.480 C 
ATOM     18  O   UNL     1       2.948  13.875 -33.802  0.00  0.00    -0.440 OA
ATOM     19  N   UNL     1       0.735  13.194 -33.365  0.00  0.00    -0.480 N 
ATOM     20  C   UNL     1      -2.339  15.248 -34.193  0.00  0.00    +0.100 C 
ATOM     21  CA  UNL     1      -0.160  13.933 -34.259  0.00  0.00    +0.100 C 
BRANCH  21  22
ATOM     22  C   UNL     1      -0.260  13.210 -35.578  0.00  0.00    +0.520 C 
ATOM     23  OXT UNL     1      -0.669  13.796 -36.565  0.00  0.00    -0.680 OA
ATOM     24  O   UNL     1       0.069  12.038 -35.656  0.00  0.00    -0.660 OA
ENDBRANCH  21  22
ENDBRANCH   8  16
ENDBRANCH   1  10
BRANCH   1  25
ATOM     25  C   UNL     1       2.979  17.961 -29.193  0.00  0.00    +0.470 C 
ATOM     26  O   UNL     1       3.816  17.191 -28.783  0.00  0.00    -0.430 OA
BRANCH  25  27
ATOM     27  O   UNL     1       3.147  19.283 -29.029  0.00  0.00    -0.290 OA
BRANCH  27  28
ATOM     28  C   UNL     1       3.819  19.946 -30.008  0.00  0.00    +0.090 A 
ATOM     29  C   UNL     1       5.176  20.198 -29.871  0.00  0.00    +0.020 A 
ATOM     30  C   UNL     1       5.855  20.871 -30.868  0.00  0.00    +0.040 A 
ATOM     31  C   UNL     1       5.187  21.295 -32.004  0.00  0.00    -0.100 A 
ATOM     32  C   UNL     1       5.697  22.040 -33.220  0.00  0.00    +0.080 C 
ATOM     33  C   UNL     1       4.616  21.832 -34.303  0.00  0.00    +0.030 C 
ATOM     34  C   UNL     1       3.343  21.603 -33.461  0.00  0.00    +0.080 C 
ATOM     35  C   UNL     1       3.833  21.044 -32.143  0.00  0.00    -0.080 A 
ATOM     36  C   UNL     1       3.152  20.365 -31.148  0.00  0.00    +0.030 A 
ENDBRANCH  27  28
ENDBRANCH  25  27
ENDBRANCH   1  25
TORSDOF 7
ENDMDL
MODEL 4
REMARK VINA RESULT:      -8.0     28.144     30.634
REMARK  Name = ZINC000003871889
REMARK  9 active torsions:
REMARK  status: ('A' for Active; 'I' for Inactive)
REMARK    1  A    between atoms: C1_1  and  C2_2
REMARK    2  A    between atoms: C2_2  and  C3_3
REMARK    3  A    between atoms: C7_7  and  N9_9
REMARK    4  A    between atoms: C10_10  and  C12_12
REMARK    5  A    between atoms: C12_12  and  C14_14
REMARK    6  A    between atoms: C12_12  and  C26_26
REMARK    7  A    between atoms: C14_14  and  O16_16
REMARK    8  A    between atoms: O16_16  and  C17_17
REMARK    9  A    between atoms: C35_35  and  C37_37
REMARK                            x       y       z     vdW  Elec       q    Type
REMARK                         _______ _______ _______ _____ _____    ______ ____
ROOT
ATOM      1  C   UNL     1     -21.006  -5.063 -27.979  0.00  0.00    +0.080 C 
ENDROOT
BRANCH   1   2
ATOM      2  C   UNL     1     -19.855  -5.343 -27.048  0.00  0.00    -0.090 A 
ATOM      3  C   UNL     1     -19.556  -6.645 -26.692  0.00  0.00    +0.020 A 
ATOM      4  C   UNL     1     -18.499  -6.902 -25.838  0.00  0.00    +0.010 A 
ATOM      5  C   UNL     1     -17.742  -5.859 -25.341  0.00  0.00    +0.010 A 
ATOM      6  C   UNL     1     -18.040  -4.556 -25.698  0.00  0.00    +0.020 A 
ATOM      7  C   UNL     1     -19.094  -4.299 -26.556  0.00  0.00    +0.040 A 
ENDBRANCH   1   2
BRANCH   1  10
ATOM      8  N   UNL     1     -22.509  -4.737 -26.042  0.00  0.00    -0.690 N 
ATOM      9  H   UNL     1     -22.134  -5.543 -25.655  0.00  0.00    +0.420 HD
ATOM     10  C   UNL     1     -22.074  -4.300 -27.240  0.00  0.00    +0.530 C 
ATOM     11  O   UNL     1     -22.544  -3.292 -27.725  0.00  0.00    -0.490 OA
BRANCH   8  16
ATOM     12  C   UNL     1     -26.125  -7.356 -23.141  0.00  0.00    +0.070 C 
ATOM     13  C   UNL     1     -24.684  -7.230 -23.639  0.00  0.00    +0.030 C 
ATOM     14  S   UNL     1     -24.626  -6.604 -25.372  0.00  0.00    -0.300 S 
ATOM     15  C   UNL     1     -24.745  -4.838 -24.898  0.00  0.00    +0.230 C 
ATOM     16  CA  UNL     1     -23.549  -3.994 -25.325  0.00  0.00    +0.250 C 
ATOM     17  C   UNL     1     -23.339  -3.908 -23.836  0.00  0.00    +0.480 C 
ATOM     18  O   UNL     1     -22.558  -3.266 -23.166  0.00  0.00    -0.440 OA
ATOM     19  N   UNL     1     -24.327  -4.788 -23.490  0.00  0.00    -0.480 N 
ATOM     20  C   UNL     1     -23.933  -8.556 -23.499  0.00  0.00    +0.100 C 
ATOM     21  CA  UNL     1     -23.936  -6.078 -22.915  0.00  0.00    +0.100 C 
BRANCH  21  22
ATOM     22  C   UNL     1     -24.270  -6.093 -21.446  0.00  0.00    +0.520 C 
ATOM     23  OXT UNL     1     -25.160  -5.381 -21.015  0.00  0.00    -0.680 OA
ATOM     24  O   UNL     1     -23.648  -6.819 -20.688  0.00  0.00    -0.660 OA
ENDBRANCH  21  22
ENDBRANCH   8  16
ENDBRANCH   1  10
BRANCH   1  25
ATOM     25  C   UNL     1     -21.574  -6.364 -28.481  0.00  0.00    +0.470 C 
ATOM     26  O   UNL     1     -22.731  -6.641 -28.268  0.00  0.00    -0.430 OA
BRANCH  25  27
ATOM     27  O   UNL     1     -20.795  -7.218 -29.165  0.00  0.00    -0.290 OA
BRANCH  27  28
ATOM     28  C   UNL     1     -20.878  -7.178 -30.522  0.00  0.00    +0.090 A 
ATOM     29  C   UNL     1     -21.468  -8.226 -31.213  0.00  0.00    +0.020 A 
ATOM     30  C   UNL     1     -21.550  -8.181 -32.591  0.00  0.00    +0.040 A 
ATOM     31  C   UNL     1     -21.047  -7.094 -33.286  0.00  0.00    -0.100 A 
ATOM     32  C   UNL     1     -21.016  -6.811 -34.773  0.00  0.00    +0.080 C 
ATOM     33  C   UNL     1     -20.745  -5.295 -34.890  0.00  0.00    +0.030 C 
ATOM     34  C   UNL     1     -19.993  -4.991 -33.577  0.00  0.00    +0.080 C 
ATOM     35  C   UNL     1     -20.459  -6.048 -32.598  0.00  0.00    -0.080 A 
ATOM     36  C   UNL     1     -20.380  -6.088 -31.217  0.00  0.00    +0.030 A 
ENDBRANCH  27  28
ENDBRANCH  25  27
ENDBRANCH   1  25
TORSDOF 7
ENDMDL
MODEL 5
REMARK VINA RESULT:      -8.0      3.973      8.557
REMARK  Name = ZINC000003871889
REMARK  9 active torsions:
REMARK  status: ('A' for Active; 'I' for Inactive)
REMARK    1  A    between atoms: C1_1  and  C2_2
REMARK    2  A    between atoms: C2_2  and  C3_3
REMARK    3  A    between atoms: C7_7  and  N9_9
REMARK    4  A    between atoms: C10_10  and  C12_12
REMARK    5  A    between atoms: C12_12  and  C14_14
REMARK    6  A    between atoms: C12_12  and  C26_26
REMARK    7  A    between atoms: C14_14  and  O16_16
REMARK    8  A    between atoms: O16_16  and  C17_17
REMARK    9  A    between atoms: C35_35  and  C37_37
REMARK                            x       y       z     vdW  Elec       q    Type
REMARK                         _______ _______ _______ _____ _____    ______ ____
ROOT
ATOM      1  C   UNL     1       1.805  17.900 -30.024  0.00  0.00    +0.080 C 
ENDROOT
BRANCH   1   2
ATOM      2  C   UNL     1       0.643  18.147 -29.098  0.00  0.00    -0.090 A 
ATOM      3  C   UNL     1       0.297  19.440 -28.753  0.00  0.00    +0.020 A 
ATOM      4  C   UNL     1      -0.770  19.667 -27.903  0.00  0.00    +0.010 A 
ATOM      5  C   UNL     1      -1.491  18.601 -27.399  0.00  0.00    +0.010 A 
ATOM      6  C   UNL     1      -1.145  17.308 -27.744  0.00  0.00    +0.020 A 
ATOM      7  C   UNL     1      -0.082  17.081 -28.598  0.00  0.00    +0.040 A 
ENDBRANCH   1   2
BRANCH   1  10
ATOM      8  N   UNL     1       1.475  15.775 -31.245  0.00  0.00    -0.690 N 
ATOM      9  H   UNL     1       0.957  16.267 -31.899  0.00  0.00    +0.420 HD
ATOM     10  C   UNL     1       2.011  16.417 -30.188  0.00  0.00    +0.530 C 
ATOM     11  O   UNL     1       2.658  15.801 -29.368  0.00  0.00    -0.490 OA
BRANCH   8  16
ATOM     12  C   UNL     1      -2.262  12.819 -33.621  0.00  0.00    +0.070 C 
ATOM     13  C   UNL     1      -1.491  14.137 -33.534  0.00  0.00    +0.030 C 
ATOM     14  S   UNL     1      -1.112  14.579 -31.785  0.00  0.00    -0.300 S 
ATOM     15  C   UNL     1       0.400  13.548 -31.694  0.00  0.00    +0.230 C 
ATOM     16  CA  UNL     1       1.674  14.332 -31.403  0.00  0.00    +0.250 C 
ATOM     17  C   UNL     1       2.015  13.900 -32.804  0.00  0.00    +0.480 C 
ATOM     18  O   UNL     1       3.030  14.012 -33.461  0.00  0.00    -0.440 OA
ATOM     19  N   UNL     1       0.804  13.333 -33.089  0.00  0.00    -0.480 N 
ATOM     20  C   UNL     1      -2.243  15.265 -34.244  0.00  0.00    +0.100 C 
ATOM     21  CA  UNL     1      -0.049  13.984 -34.087  0.00  0.00    +0.100 C 
BRANCH  21  22
ATOM     22  C   UNL     1      -0.068  13.156 -35.347  0.00  0.00    +0.520 C 
ATOM     23  OXT UNL     1      -0.416  13.658 -36.401  0.00  0.00    -0.680 OA
ATOM     24  O   UNL     1       0.266  11.984 -35.310  0.00  0.00    -0.660 OA
ENDBRANCH  21  22
ENDBRANCH   8  16
ENDBRANCH   1  10
BRANCH   1  25
ATOM     25  C   UNL     1       3.050  18.520 -29.445  0.00  0.00    +0.470 C 
ATOM     26  O   UNL     1       3.769  19.196 -30.142  0.00  0.00    -0.430 OA
BRANCH  25  27
ATOM     27  O   UNL     1       3.362  18.320 -28.154  0.00  0.00    -0.290 OA
BRANCH  27  28
ATOM     28  C   UNL     1       3.992  19.335 -27.507  0.00  0.00    +0.090 A 
ATOM     29  C   UNL     1       3.352  20.555 -27.339  0.00  0.00    +0.020 A 
ATOM     30  C   UNL     1       3.996  21.584 -26.680  0.00  0.00    +0.040 A 
ATOM     31  C   UNL     1       5.276  21.404 -26.186  0.00  0.00    -0.100 A 
ATOM     32  C   UNL     1       6.181  22.361 -25.438  0.00  0.00    +0.080 C 
ATOM     33  C   UNL     1       7.260  21.470 -24.786  0.00  0.00    +0.030 C 
ATOM     34  C   UNL     1       7.293  20.247 -25.727  0.00  0.00    +0.080 C 
ATOM     35  C   UNL     1       5.916  20.189 -26.352  0.00  0.00    -0.080 A 
ATOM     36  C   UNL     1       5.272  19.154 -27.007  0.00  0.00    +0.030 A 
ENDBRANCH  27  28
ENDBRANCH  25  27
ENDBRANCH   1  25
TORSDOF 7
ENDMDL
MODEL 6
REMARK VINA RESULT:      -7.9     19.497     21.567
REMARK  Name = ZINC000003871889
REMARK  9 active torsions:
REMARK  status: ('A' for Active; 'I' for Inactive)
REMARK    1  A    between atoms: C1_1  and  C2_2
REMARK    2  A    between atoms: C2_2  and  C3_3
REMARK    3  A    between atoms: C7_7  and  N9_9
REMARK    4  A    between atoms: C10_10  and  C12_12
REMARK    5  A    between atoms: C12_12  and  C14_14
REMARK    6  A    between atoms: C12_12  and  C26_26
REMARK    7  A    between atoms: C14_14  and  O16_16
REMARK    8  A    between atoms: O16_16  and  C17_17
REMARK    9  A    between atoms: C35_35  and  C37_37
REMARK                            x       y       z     vdW  Elec       q    Type
REMARK                         _______ _______ _______ _____ _____    ______ ____
ROOT
ATOM      1  C   UNL     1       3.875  -3.142 -33.302  0.00  0.00    +0.080 C 
ENDROOT
BRANCH   1   2
ATOM      2  C   UNL     1       5.377  -3.232 -33.365  0.00  0.00    -0.090 A 
ATOM      3  C   UNL     1       6.104  -2.230 -33.980  0.00  0.00    +0.020 A 
ATOM      4  C   UNL     1       7.483  -2.312 -34.038  0.00  0.00    +0.010 A 
ATOM      5  C   UNL     1       8.135  -3.396 -33.481  0.00  0.00    +0.010 A 
ATOM      6  C   UNL     1       7.408  -4.399 -32.866  0.00  0.00    +0.020 A 
ATOM      7  C   UNL     1       6.030  -4.314 -32.803  0.00  0.00    +0.040 A 
ENDBRANCH   1   2
BRANCH   1  10
ATOM      8  N   UNL     1       1.976  -3.725 -34.775  0.00  0.00    -0.690 N 
ATOM      9  H   UNL     1       1.401  -3.692 -33.995  0.00  0.00    +0.420 HD
ATOM     10  C   UNL     1       3.294  -3.474 -34.651  0.00  0.00    +0.530 C 
ATOM     11  O   UNL     1       4.014  -3.517 -35.627  0.00  0.00    -0.490 OA
BRANCH   8  16
ATOM     12  C   UNL     1      -1.934  -7.317 -35.175  0.00  0.00    +0.070 C 
ATOM     13  C   UNL     1      -1.275  -6.176 -34.399  0.00  0.00    +0.030 C 
ATOM     14  S   UNL     1       0.562  -6.246 -34.531  0.00  0.00    -0.300 S 
ATOM     15  C   UNL     1       0.630  -5.358 -36.132  0.00  0.00    +0.230 C 
ATOM     16  CA  UNL     1       1.412  -4.049 -36.088  0.00  0.00    +0.250 C 
ATOM     17  C   UNL     1       0.048  -3.464 -36.342  0.00  0.00    +0.480 C 
ATOM     18  O   UNL     1      -0.314  -2.331 -36.577  0.00  0.00    -0.440 OA
ATOM     19  N   UNL     1      -0.646  -4.637 -36.228  0.00  0.00    -0.480 N 
ATOM     20  C   UNL     1      -1.729  -6.169 -32.937  0.00  0.00    +0.100 C 
ATOM     21  CA  UNL     1      -1.538  -4.805 -35.078  0.00  0.00    +0.100 C 
BRANCH  21  22
ATOM     22  C   UNL     1      -2.971  -4.728 -35.540  0.00  0.00    +0.520 C 
ATOM     23  OXT UNL     1      -3.849  -4.411 -34.756  0.00  0.00    -0.680 OA
ATOM     24  O   UNL     1      -3.252  -4.984 -36.699  0.00  0.00    -0.660 OA
ENDBRANCH  21  22
ENDBRANCH   8  16
ENDBRANCH   1  10
BRANCH   1  25
ATOM     25  C   UNL     1       3.471  -1.744 -32.911  0.00  0.00    +0.470 C 
ATOM     26  O   UNL     1       2.791  -1.080 -33.658  0.00  0.00    -0.430 OA
BRANCH  25  27
ATOM     27  O   UNL     1       3.867  -1.235 -31.734  0.00  0.00    -0.290 OA
BRANCH  27  28
ATOM     28  C   UNL     1       3.493  -1.907 -30.613  0.00  0.00    +0.090 A 
ATOM     29  C   UNL     1       4.452  -2.502 -29.806  0.00  0.00    +0.020 A 
ATOM     30  C   UNL     1       4.067  -3.183 -28.669  0.00  0.00    +0.040 A 
ATOM     31  C   UNL     1       2.728  -3.275 -28.329  0.00  0.00    -0.100 A 
ATOM     32  C   UNL     1       2.060  -3.955 -27.152  0.00  0.00    +0.080 C 
ATOM     33  C   UNL     1       0.643  -3.346 -27.085  0.00  0.00    +0.030 C 
ATOM     34  C   UNL     1       0.394  -2.924 -28.549  0.00  0.00    +0.080 C 
ATOM     35  C   UNL     1       1.770  -2.683 -29.132  0.00  0.00    -0.080 A 
ATOM     36  C   UNL     1       2.153  -1.995 -30.270  0.00  0.00    +0.030 A 
ENDBRANCH  27  28
ENDBRANCH  25  27
ENDBRANCH   1  25
TORSDOF 7
ENDMDL
MODEL 7
REMARK VINA RESULT:      -7.9      3.551      7.753
REMARK  Name = ZINC000003871889
REMARK  9 active torsions:
REMARK  status: ('A' for Active; 'I' for Inactive)
REMARK    1  A    between atoms: C1_1  and  C2_2
REMARK    2  A    between atoms: C2_2  and  C3_3
REMARK    3  A    between atoms: C7_7  and  N9_9
REMARK    4  A    between atoms: C10_10  and  C12_12
REMARK    5  A    between atoms: C12_12  and  C14_14
REMARK    6  A    between atoms: C12_12  and  C26_26
REMARK    7  A    between atoms: C14_14  and  O16_16
REMARK    8  A    between atoms: O16_16  and  C17_17
REMARK    9  A    between atoms: C35_35  and  C37_37
REMARK                            x       y       z     vdW  Elec       q    Type
REMARK                         _______ _______ _______ _____ _____    ______ ____
ROOT
ATOM      1  C   UNL     1       1.387  17.161 -29.357  0.00  0.00    +0.080 C 
ENDROOT
BRANCH   1   2
ATOM      2  C   UNL     1       2.690  17.825 -28.996  0.00  0.00    -0.090 A 
ATOM      3  C   UNL     1       2.693  19.111 -28.491  0.00  0.00    +0.020 A 
ATOM      4  C   UNL     1       3.889  19.720 -28.158  0.00  0.00    +0.010 A 
ATOM      5  C   UNL     1       5.081  19.043 -28.331  0.00  0.00    +0.010 A 
ATOM      6  C   UNL     1       5.079  17.756 -28.836  0.00  0.00    +0.020 A 
ATOM      7  C   UNL     1       3.882  17.145 -29.163  0.00  0.00    +0.040 A 
ENDBRANCH   1   2
BRANCH   1  10
ATOM      8  N   UNL     1       1.591  15.400 -31.082  0.00  0.00    -0.690 N 
ATOM      9  H   UNL     1       1.382  16.072 -31.748  0.00  0.00    +0.420 HD
ATOM     10  C   UNL     1       1.648  15.738 -29.778  0.00  0.00    +0.530 C 
ATOM     11  O   UNL     1       1.908  14.897 -28.944  0.00  0.00    -0.490 OA
BRANCH   8  16
ATOM     12  C   UNL     1      -2.162  12.672 -33.695  0.00  0.00    +0.070 C 
ATOM     13  C   UNL     1      -1.446  13.999 -33.434  0.00  0.00    +0.030 C 
ATOM     14  S   UNL     1      -0.971  14.168 -31.662  0.00  0.00    -0.300 S 
ATOM     15  C   UNL     1       0.588  13.220 -31.833  0.00  0.00    +0.230 C 
ATOM     16  CA  UNL     1       1.843  14.016 -31.490  0.00  0.00    +0.250 C 
ATOM     17  C   UNL     1       2.108  13.839 -32.962  0.00  0.00    +0.480 C 
ATOM     18  O   UNL     1       3.070  14.113 -33.649  0.00  0.00    -0.440 OA
ATOM     19  N   UNL     1       0.907  13.260 -33.266  0.00  0.00    -0.480 N 
ATOM     20  C   UNL     1      -2.294  15.185 -33.900  0.00  0.00    +0.100 C 
ATOM     21  CA  UNL     1      -0.039  14.019 -34.089  0.00  0.00    +0.100 C 
BRANCH  21  22
ATOM     22  C   UNL     1      -0.105  13.410 -35.466  0.00  0.00    +0.520 C 
ATOM     23  OXT UNL     1       0.180  12.236 -35.628  0.00  0.00    -0.680 OA
ATOM     24  O   UNL     1      -0.444  14.092 -36.419  0.00  0.00    -0.660 OA
ENDBRANCH  21  22
ENDBRANCH   8  16
ENDBRANCH   1  10
BRANCH   1  25
ATOM     25  C   UNL     1       0.738  17.910 -30.492  0.00  0.00    +0.470 C 
ATOM     26  O   UNL     1       1.367  18.149 -31.496  0.00  0.00    -0.430 OA
BRANCH  25  27
ATOM     27  O   UNL     1      -0.538  18.315 -30.387  0.00  0.00    -0.290 OA
BRANCH  27  28
ATOM     28  C   UNL     1      -0.879  18.998 -29.262  0.00  0.00    +0.090 A 
ATOM     29  C   UNL     1      -0.627  20.359 -29.172  0.00  0.00    +0.020 A 
ATOM     30  C   UNL     1      -0.975  21.048 -28.027  0.00  0.00    +0.040 A 
ATOM     31  C   UNL     1      -1.575  20.387 -26.969  0.00  0.00    -0.100 A 
ATOM     32  C   UNL     1      -2.045  20.909 -25.627  0.00  0.00    +0.080 C 
ATOM     33  C   UNL     1      -3.001  19.825 -25.084  0.00  0.00    +0.030 C 
ATOM     34  C   UNL     1      -2.483  18.549 -25.780  0.00  0.00    +0.080 C 
ATOM     35  C   UNL     1      -1.827  19.030 -27.056  0.00  0.00    -0.080 A 
ATOM     36  C   UNL     1      -1.484  18.338 -28.204  0.00  0.00    +0.030 A 
ENDBRANCH  27  28
ENDBRANCH  25  27
ENDBRANCH   1  25
TORSDOF 7
ENDMDL
MODEL 8
REMARK VINA RESULT:      -7.8      3.175      7.813
REMARK  Name = ZINC000003871889
REMARK  9 active torsions:
REMARK  status: ('A' for Active; 'I' for Inactive)
REMARK    1  A    between atoms: C1_1  and  C2_2
REMARK    2  A    between atoms: C2_2  and  C3_3
REMARK    3  A    between atoms: C7_7  and  N9_9
REMARK    4  A    between atoms: C10_10  and  C12_12
REMARK    5  A    between atoms: C12_12  and  C14_14
REMARK    6  A    between atoms: C12_12  and  C26_26
REMARK    7  A    between atoms: C14_14  and  O16_16
REMARK    8  A    between atoms: O16_16  and  C17_17
REMARK    9  A    between atoms: C35_35  and  C37_37
REMARK                            x       y       z     vdW  Elec       q    Type
REMARK                         _______ _______ _______ _____ _____    ______ ____
ROOT
ATOM      1  C   UNL     1       1.264  15.343 -29.700  0.00  0.00    +0.080 C 
ENDROOT
BRANCH   1   2
ATOM      2  C   UNL     1       1.438  16.741 -30.233  0.00  0.00    -0.090 A 
ATOM      3  C   UNL     1       2.223  17.649 -29.547  0.00  0.00    +0.020 A 
ATOM      4  C   UNL     1       2.384  18.932 -30.036  0.00  0.00    +0.010 A 
ATOM      5  C   UNL     1       1.761  19.307 -31.211  0.00  0.00    +0.010 A 
ATOM      6  C   UNL     1       0.977  18.399 -31.899  0.00  0.00    +0.020 A 
ATOM      7  C   UNL     1       0.820  17.114 -31.412  0.00  0.00    +0.040 A 
ENDBRANCH   1   2
BRANCH   1  10
ATOM      8  N   UNL     1      -0.021  14.456 -31.618  0.00  0.00    -0.690 N 
ATOM      9  H   UNL     1      -0.700  15.122 -31.431  0.00  0.00    +0.420 HD
ATOM     10  C   UNL     1       1.083  14.386 -30.849  0.00  0.00    +0.530 C 
ATOM     11  O   UNL     1       1.933  13.552 -31.083  0.00  0.00    -0.490 OA
BRANCH   8  16
ATOM     12  C   UNL     1      -2.847  15.921 -35.887  0.00  0.00    +0.070 C 
ATOM     13  C   UNL     1      -1.867  16.291 -34.772  0.00  0.00    +0.030 C 
ATOM     14  S   UNL     1      -2.258  15.393 -33.210  0.00  0.00    -0.300 S 
ATOM     15  C   UNL     1      -1.343  13.876 -33.677  0.00  0.00    +0.230 C 
ATOM     16  CA  UNL     1      -0.196  13.524 -32.735  0.00  0.00    +0.250 C 
ATOM     17  C   UNL     1       0.630  13.847 -33.952  0.00  0.00    +0.480 C 
ATOM     18  O   UNL     1       1.817  13.737 -34.175  0.00  0.00    -0.440 OA
ATOM     19  N   UNL     1      -0.404  14.299 -34.724  0.00  0.00    -0.480 N 
ATOM     20  C   UNL     1      -1.829  17.805 -34.550  0.00  0.00    +0.100 C 
ATOM     21  CA  UNL     1      -0.450  15.726 -35.055  0.00  0.00    +0.100 C 
BRANCH  21  22
ATOM     22  C   UNL     1      -0.104  15.914 -36.510  0.00  0.00    +0.520 C 
ATOM     23  OXT UNL     1       0.169  17.024 -36.934  0.00  0.00    -0.680 OA
ATOM     24  O   UNL     1      -0.099  14.955 -37.264  0.00  0.00    -0.660 OA
ENDBRANCH  21  22
ENDBRANCH   8  16
ENDBRANCH   1  10
BRANCH   1  25
ATOM     25  C   UNL     1       0.050  15.293 -28.809  0.00  0.00    +0.470 C 
ATOM     26  O   UNL     1       0.024  14.537 -27.866  0.00  0.00    -0.430 OA
BRANCH  25  27
ATOM     27  O   UNL     1      -1.003  16.086 -29.063  0.00  0.00    -0.290 OA
BRANCH  27  28
ATOM     28  C   UNL     1      -1.390  16.934 -28.073  0.00  0.00    +0.090 A 
ATOM     29  C   UNL     1      -1.881  16.429 -26.878  0.00  0.00    +0.020 A 
ATOM     30  C   UNL     1      -2.272  17.294 -25.875  0.00  0.00    +0.040 A 
ATOM     31  C   UNL     1      -2.177  18.663 -26.057  0.00  0.00    -0.100 A 
ATOM     32  C   UNL     1      -2.534  19.803 -25.126  0.00  0.00    +0.080 C 
ATOM     33  C   UNL     1      -1.807  21.037 -25.701  0.00  0.00    +0.030 C 
ATOM     34  C   UNL     1      -1.683  20.682 -27.197  0.00  0.00    +0.080 C 
ATOM     35  C   UNL     1      -1.687  19.169 -27.248  0.00  0.00    -0.080 A 
ATOM     36  C   UNL     1      -1.289  18.305 -28.252  0.00  0.00    +0.030 A 
ENDBRANCH  27  28
ENDBRANCH  25  27
ENDBRANCH   1  25
TORSDOF 7
ENDMDL
MODEL 9
REMARK VINA RESULT:      -7.8      2.778      7.367
REMARK  Name = ZINC000003871889
REMARK  9 active torsions:
REMARK  status: ('A' for Active; 'I' for Inactive)
REMARK    1  A    between atoms: C1_1  and  C2_2
REMARK    2  A    between atoms: C2_2  and  C3_3
REMARK    3  A    between atoms: C7_7  and  N9_9
REMARK    4  A    between atoms: C10_10  and  C12_12
REMARK    5  A    between atoms: C12_12  and  C14_14
REMARK    6  A    between atoms: C12_12  and  C26_26
REMARK    7  A    between atoms: C14_14  and  O16_16
REMARK    8  A    between atoms: O16_16  and  C17_17
REMARK    9  A    between atoms: C35_35  and  C37_37
REMARK                            x       y       z     vdW  Elec       q    Type
REMARK                         _______ _______ _______ _____ _____    ______ ____
ROOT
ATOM      1  C   UNL     1       0.675  17.106 -29.174  0.00  0.00    +0.080 C 
ENDROOT
BRANCH   1   2
ATOM      2  C   UNL     1       1.809  17.995 -29.613  0.00  0.00    -0.090 A 
ATOM      3  C   UNL     1       1.641  18.852 -30.684  0.00  0.00    +0.020 A 
ATOM      4  C   UNL     1       2.681  19.669 -31.086  0.00  0.00    +0.010 A 
ATOM      5  C   UNL     1       3.890  19.628 -30.418  0.00  0.00    +0.010 A 
ATOM      6  C   UNL     1       4.059  18.771 -29.346  0.00  0.00    +0.020 A 
ATOM      7  C   UNL     1       3.017  17.959 -28.940  0.00  0.00    +0.040 A 
ENDBRANCH   1   2
BRANCH   1  10
ATOM      8  N   UNL     1       1.301  15.369 -30.820  0.00  0.00    -0.690 N 
ATOM      9  H   UNL     1       1.333  16.065 -31.495  0.00  0.00    +0.420 HD
ATOM     10  C   UNL     1       0.982  15.679 -29.548  0.00  0.00    +0.530 C 
ATOM     11  O   UNL     1       0.941  14.809 -28.704  0.00  0.00    -0.490 OA
BRANCH   8  16
ATOM     12  C   UNL     1      -2.179  12.578 -33.727  0.00  0.00    +0.070 C 
ATOM     13  C   UNL     1      -1.498  13.913 -33.421  0.00  0.00    +0.030 C 
ATOM     14  S   UNL     1      -1.189  14.111 -31.615  0.00  0.00    -0.300 S 
ATOM     15  C   UNL     1       0.385  13.172 -31.628  0.00  0.00    +0.230 C 
ATOM     16  CA  UNL     1       1.598  13.981 -31.184  0.00  0.00    +0.250 C 
ATOM     17  C   UNL     1       1.999  13.786 -32.622  0.00  0.00    +0.480 C 
ATOM     18  O   UNL     1       3.018  14.057 -33.221  0.00  0.00    -0.440 OA
ATOM     19  N   UNL     1       0.834  13.194 -33.026  0.00  0.00    -0.480 N 
ATOM     20  C   UNL     1      -2.306  15.087 -33.980  0.00  0.00    +0.100 C 
ATOM     21  CA  UNL     1      -0.037  13.934 -33.944  0.00  0.00    +0.100 C 
BRANCH  21  22
ATOM     22  C   UNL     1       0.027  13.305 -35.312  0.00  0.00    +0.520 C 
ATOM     23  OXT UNL     1       0.431  12.162 -35.440  0.00  0.00    -0.680 OA
ATOM     24  O   UNL     1      -0.325  13.941 -36.292  0.00  0.00    -0.660 OA
ENDBRANCH  21  22
ENDBRANCH   8  16
ENDBRANCH   1  10
BRANCH   1  25
ATOM     25  C   UNL     1      -0.597  17.541 -29.853  0.00  0.00    +0.470 C 
ATOM     26  O   UNL     1      -0.864  17.130 -30.958  0.00  0.00    -0.430 OA
BRANCH  25  27
ATOM     27  O   UNL     1      -1.434  18.388 -29.232  0.00  0.00    -0.290 OA
BRANCH  27  28
ATOM     28  C   UNL     1      -2.297  17.851 -28.330  0.00  0.00    +0.090 A 
ATOM     29  C   UNL     1      -1.824  17.363 -27.121  0.00  0.00    +0.020 A 
ATOM     30  C   UNL     1      -2.705  16.818 -26.207  0.00  0.00    +0.040 A 
ATOM     31  C   UNL     1      -4.059  16.758 -26.492  0.00  0.00    -0.100 A 
ATOM     32  C   UNL     1      -5.210  16.219 -25.669  0.00  0.00    +0.080 C 
ATOM     33  C   UNL     1      -6.480  16.821 -26.307  0.00  0.00    +0.030 C 
ATOM     34  C   UNL     1      -6.034  17.065 -27.765  0.00  0.00    +0.080 C 
ATOM     35  C   UNL     1      -4.533  17.245 -27.697  0.00  0.00    -0.080 A 
ATOM     36  C   UNL     1      -3.653  17.795 -28.612  0.00  0.00    +0.030 A 
ENDBRANCH  27  28
ENDBRANCH  25  27
ENDBRANCH   1  25
TORSDOF 7
ENDMDL
