@<TRIPOS>MOLECULE
ZINC000100037101
56    60    1     0     0
SMALL
USER_CHARGES
@<TRIPOS>ATOM
1      C1      0.0898    0.6205   -0.7037 C.3      1 ZINC000100037101   -0.1700
2      C2     -0.8354   -0.5090   -0.2464 C.3      1 ZINC000100037101    0.1000
3      C3     -0.8213   -0.5928    1.2813 C.3      1 ZINC000100037101   -0.1700
4      N4     -2.1995   -0.2400   -0.7081 N.2      1 ZINC000100037101   -0.6100
5      H5     -2.6822    0.5311   -0.3717 H        1 ZINC000100037101    0.4300
6      C6     -2.7716   -1.0471   -1.5818 C.2      1 ZINC000100037101    0.3600
7      C7     -2.0246   -2.0887   -2.1761 C.2      1 ZINC000100037101   -0.3000
8      C8     -2.6181   -2.9187   -3.0759 C.2      1 ZINC000100037101    0.2600
9      C9     -4.0353   -2.7351   -3.4321 C.2      1 ZINC000100037101    0.1100
10     N10    -4.6024   -3.5450   -4.3071 N.2      1 ZINC000100037101   -0.3200
11     C11    -3.9124   -4.5405   -4.8850 C.ar     1 ZINC000100037101    0.0500
12     C12    -4.5492   -5.3839   -5.8129 C.ar     1 ZINC000100037101   -0.0200
13     C13    -3.8532   -6.3969   -6.4037 C.ar     1 ZINC000100037101   -0.1200
14     C14    -2.5146   -6.6095   -6.0996 C.ar     1 ZINC000100037101   -0.0100
15     C15    -1.8652   -5.7982   -5.1938 C.ar     1 ZINC000100037101   -0.1600
16     C16    -2.5529   -4.7578   -4.5780 C.ar     1 ZINC000100037101    0.1700
17     N17    -1.9058   -3.9421   -3.6682 N.pl3    1 ZINC000100037101   -0.3900
18     C18    -0.5598   -4.1488   -3.3556 C.ar     1 ZINC000100037101    0.0600
19     C19     0.4322   -3.5247   -4.1023 C.ar     1 ZINC000100037101   -0.0800
20     C20     1.7614   -3.7306   -3.7906 C.ar     1 ZINC000100037101   -0.1000
21     C21     2.1063   -4.5580   -2.7360 C.ar     1 ZINC000100037101   -0.0100
22     Cl22    3.7787   -4.8149   -2.3475 Cl       1 ZINC000100037101   -0.0300
23     C23     1.1205   -5.1806   -1.9901 C.ar     1 ZINC000100037101   -0.1000
24     C24    -0.2106   -4.9744   -2.2937 C.ar     1 ZINC000100037101   -0.0800
25     C25    -4.7816   -1.6897   -2.8337 C.2      1 ZINC000100037101   -0.0100
26     C26    -4.1915   -0.8656   -1.9331 C.2      1 ZINC000100037101    0.1100
27     N27    -4.9243    0.1585   -1.3475 N.pl3    1 ZINC000100037101   -0.6900
28     C28    -5.0852    0.1975    0.0397 C.ar     1 ZINC000100037101    0.1700
29     C29    -5.7566    1.2594    0.6330 C.ar     1 ZINC000100037101   -0.1500
30     C30    -5.9140    1.2952    2.0044 C.ar     1 ZINC000100037101   -0.0600
31     C31    -5.4038    0.2748    2.7878 C.ar     1 ZINC000100037101   -0.0700
32     Cl32   -5.6036    0.3232    4.5115 Cl       1 ZINC000100037101   -0.0600
33     C33    -4.7349   -0.7845    2.1996 C.ar     1 ZINC000100037101   -0.0600
34     C34    -4.5790   -0.8284    0.8282 C.ar     1 ZINC000100037101   -0.1800
35     H35     1.1047    0.4204   -0.3602 H        1 ZINC000100037101    0.0900
36     H36     0.0798    0.6802   -1.7920 H        1 ZINC000100037101    0.0700
37     H37    -0.2559    1.5655   -0.2848 H        1 ZINC000100037101    0.0700
38     H38    -0.4897   -1.4540   -0.6653 H        1 ZINC000100037101    0.1100
39     H39    -1.1670    0.3522    1.7002 H        1 ZINC000100037101    0.0700
40     H40    -1.4804   -1.3975    1.6071 H        1 ZINC000100037101    0.0700
41     H41     0.1936   -0.7929    1.6248 H        1 ZINC000100037101    0.0900
42     H42    -0.9851   -2.2255   -1.9170 H        1 ZINC000100037101    0.1700
43     H43    -5.5898   -5.2294   -6.0573 H        1 ZINC000100037101    0.1600
44     H44    -4.3481   -7.0410   -7.1155 H        1 ZINC000100037101    0.1600
45     H45    -1.9785   -7.4169   -6.5763 H        1 ZINC000100037101    0.1600
46     H46    -0.8243   -5.9700   -4.9627 H        1 ZINC000100037101    0.1500
47     H47     0.1637   -2.8796   -4.9258 H        1 ZINC000100037101    0.1500
48     H48     2.5329   -3.2459   -4.3706 H        1 ZINC000100037101    0.1600
49     H49     1.3927   -5.8257   -1.1678 H        1 ZINC000100037101    0.1600
50     H50    -0.9794   -5.4605   -1.7114 H        1 ZINC000100037101    0.1500
51     H51    -5.8210   -1.5514   -3.0924 H        1 ZINC000100037101    0.1800
52     H52    -5.3244    0.8468   -1.9017 H        1 ZINC000100037101    0.4300
53     H53    -6.1547    2.0562    0.0222 H        1 ZINC000100037101    0.1400
54     H54    -6.4355    2.1206    2.4662 H        1 ZINC000100037101    0.1400
55     H55    -4.3381   -1.5796    2.8134 H        1 ZINC000100037101    0.1400
56     H56    -4.0570   -1.6552    0.3697 H        1 ZINC000100037101    0.1200
@<TRIPOS>BOND
1     1     2     1
2     1     35    1
3     1     36    1
4     1     37    1
5     2     3     1
6     2     4     1
7     2     38    1
8     3     39    1
9     3     40    1
10    3     41    1
11    4     5     1
12    4     6     2
13    6     26    1
14    6     7     1
15    7     8     2
16    7     42    1
17    8     17    1
18    8     9     1
19    9     10    2
20    9     25    1
21    10    11    1
22    11    16    ar
23    11    12    ar
24    12    13    ar
25    12    43    1
26    13    14    ar
27    13    44    1
28    14    15    ar
29    14    45    1
30    15    16    ar
31    15    46    1
32    16    17    1
33    17    18    1
34    18    24    ar
35    18    19    ar
36    19    20    ar
37    19    47    1
38    20    21    ar
39    20    48    1
40    21    22    1
41    21    23    ar
42    23    24    ar
43    23    49    1
44    24    50    1
45    25    26    2
46    25    51    1
47    26    27    1
48    27    28    1
49    27    52    1
50    28    34    ar
51    28    29    ar
52    29    30    ar
53    29    53    1
54    30    31    ar
55    30    54    1
56    31    32    1
57    31    33    ar
58    33    34    ar
59    33    55    1
60    34    56    1
@<TRIPOS>SUBSTRUCTURE
1   ZINC000100037101 1     RESIDUE    1   A     ZIN   1
