MODEL 1
REMARK VINA RESULT:      -8.4      0.000      0.000
REMARK  Name = ZINC000100037101
REMARK  6 active torsions:
REMARK  status: ('A' for Active; 'I' for Inactive)
REMARK    1  A    between atoms: C1_1  and  C2_2
REMARK    2  A    between atoms: C2_2  and  C3_3
REMARK    3  A    between atoms: C2_2  and  N4_4
REMARK    4  A    between atoms: N17_17  and  C18_18
REMARK    5  A    between atoms: C26_26  and  N27_27
REMARK    6  A    between atoms: N27_27  and  C28_28
REMARK                            x       y       z     vdW  Elec       q    Type
REMARK                         _______ _______ _______ _____ _____    ______ ____
ROOT
ATOM      1  N   UNL     1       0.216   9.970 -36.053  0.00  0.00    -0.610 N 
ATOM      2  C   UNL     1      -0.406  11.133 -36.112  0.00  0.00    +0.360 A 
ATOM      3  C   UNL     1      -0.991  11.560 -37.325  0.00  0.00    -0.130 A 
ATOM      4  C   UNL     1      -1.632  12.759 -37.382  0.00  0.00    +0.260 A 
ATOM      5  C   UNL     1      -1.717  13.611 -36.184  0.00  0.00    +0.110 A 
ATOM      6  C   UNL     1      -1.130  13.180 -34.969  0.00  0.00    +0.170 A 
ATOM      7  N   UNL     1      -2.340  14.773 -36.249  0.00  0.00    -0.320 NA
ATOM      8  C   UNL     1      -2.902  15.200 -37.391  0.00  0.00    +0.050 A 
ATOM      9  C   UNL     1      -3.558  16.444 -37.423  0.00  0.00    +0.140 A 
ATOM     10  C   UNL     1      -4.131  16.884 -38.580  0.00  0.00    +0.040 A 
ATOM     11  C   UNL     1      -4.076  16.115 -39.735  0.00  0.00    +0.150 A 
ATOM     12  C   UNL     1      -3.440  14.892 -39.732  0.00  0.00    -0.010 A 
ATOM     13  C   UNL     1      -2.848  14.421 -38.565  0.00  0.00    +0.170 A 
ATOM     14  N   UNL     1      -2.210  13.195 -38.557  0.00  0.00    -0.390 N 
ATOM     15  C   UNL     1      -0.496  11.982 -34.912  0.00  0.00    +0.110 A 
ATOM     16  H   UNL     1       0.699   9.718 -35.251  0.00  0.00    +0.430 HD
ENDROOT
BRANCH  14  17
ATOM     17  C   UNL     1      -2.150  12.415 -39.715  0.00  0.00    +0.060 A 
ATOM     18  C   UNL     1      -1.080  12.548 -40.590  0.00  0.00    +0.070 A 
ATOM     19  C   UNL     1      -1.024  11.775 -41.733  0.00  0.00    +0.060 A 
ATOM     20  C   UNL     1      -2.032  10.867 -42.006  0.00  0.00    -0.010 A 
ATOM     21  C   UNL     1      -3.100  10.731 -41.136  0.00  0.00    +0.060 A 
ATOM     22 CL   UNL     1      -1.958   9.897 -43.445  0.00  0.00    -0.030 Cl
ATOM     23  C   UNL     1      -3.158  11.498 -39.988  0.00  0.00    +0.070 A 
ENDBRANCH  14  17
BRANCH   1  25
ATOM     24  C   UNL     1       1.593   8.559 -37.502  0.00  0.00    +0.060 C 
ATOM     25  C   UNL     1       0.178   9.059 -37.201  0.00  0.00    +0.210 C 
ATOM     26  C   UNL     1      -0.726   7.869 -36.877  0.00  0.00    +0.060 C 
ENDBRANCH   1  25
BRANCH  15  27
ATOM     27  N   UNL     1       0.080  11.559 -33.720  0.00  0.00    -0.690 N 
ATOM     28  H   UNL     1       0.161  10.611 -33.530  0.00  0.00    +0.430 HD
BRANCH  27  29
ATOM     29  C   UNL     1       0.542  12.499 -32.796  0.00  0.00    +0.170 A 
ATOM     30  C   UNL     1      -0.157  12.718 -31.616  0.00  0.00    -0.010 A 
ATOM     31  C   UNL     1       0.302  13.648 -30.705  0.00  0.00    +0.080 A 
ATOM     32  C   UNL     1       1.459  14.361 -30.965  0.00  0.00    -0.070 A 
ATOM     33  C   UNL     1       2.159  14.145 -32.139  0.00  0.00    +0.080 A 
ATOM     34 CL   UNL     1       2.034  15.529 -29.817  0.00  0.00    -0.060 Cl
ATOM     35  C   UNL     1       1.707  13.212 -33.052  0.00  0.00    -0.060 A 
ENDBRANCH  27  29
ENDBRANCH  15  27
TORSDOF 4
ENDMDL
MODEL 2
REMARK VINA RESULT:      -7.8      2.299      5.112
REMARK  Name = ZINC000100037101
REMARK  6 active torsions:
REMARK  status: ('A' for Active; 'I' for Inactive)
REMARK    1  A    between atoms: C1_1  and  C2_2
REMARK    2  A    between atoms: C2_2  and  C3_3
REMARK    3  A    between atoms: C2_2  and  N4_4
REMARK    4  A    between atoms: N17_17  and  C18_18
REMARK    5  A    between atoms: C26_26  and  N27_27
REMARK    6  A    between atoms: N27_27  and  C28_28
REMARK                            x       y       z     vdW  Elec       q    Type
REMARK                         _______ _______ _______ _____ _____    ______ ____
ROOT
ATOM      1  N   UNL     1      -1.670  14.740 -32.824  0.00  0.00    -0.610 N 
ATOM      2  C   UNL     1      -1.210  13.669 -33.442  0.00  0.00    +0.360 A 
ATOM      3  C   UNL     1      -1.401  13.520 -34.835  0.00  0.00    -0.130 A 
ATOM      4  C   UNL     1      -0.925  12.415 -35.469  0.00  0.00    +0.260 A 
ATOM      5  C   UNL     1      -0.211  11.374 -34.709  0.00  0.00    +0.110 A 
ATOM      6  C   UNL     1      -0.021  11.526 -33.314  0.00  0.00    +0.170 A 
ATOM      7  N   UNL     1       0.247  10.305 -35.333  0.00  0.00    -0.320 NA
ATOM      8  C   UNL     1       0.076  10.141 -36.654  0.00  0.00    +0.050 A 
ATOM      9  C   UNL     1       0.578   8.989 -37.286  0.00  0.00    +0.140 A 
ATOM     10  C   UNL     1       0.407   8.817 -38.628  0.00  0.00    +0.040 A 
ATOM     11  C   UNL     1      -0.259   9.771 -39.385  0.00  0.00    +0.150 A 
ATOM     12  C   UNL     1      -0.761  10.910 -38.793  0.00  0.00    -0.010 A 
ATOM     13  C   UNL     1      -0.600  11.109 -37.426  0.00  0.00    +0.170 A 
ATOM     14  N   UNL     1      -1.101  12.250 -36.828  0.00  0.00    -0.390 N 
ATOM     15  C   UNL     1      -0.491  12.631 -32.683  0.00  0.00    +0.110 A 
ATOM     16  H   UNL     1      -1.625  14.799 -31.857  0.00  0.00    +0.430 HD
ENDROOT
BRANCH  14  17
ATOM     17  C   UNL     1      -1.772  13.215 -37.583  0.00  0.00    +0.060 A 
ATOM     18  C   UNL     1      -1.095  14.340 -38.036  0.00  0.00    +0.070 A 
ATOM     19  C   UNL     1      -1.760  15.292 -38.782  0.00  0.00    +0.060 A 
ATOM     20  C   UNL     1      -3.102  15.125 -39.080  0.00  0.00    -0.010 A 
ATOM     21  C   UNL     1      -3.780  14.006 -38.631  0.00  0.00    +0.060 A 
ATOM     22 CL   UNL     1      -3.936  16.325 -40.019  0.00  0.00    -0.030 Cl
ATOM     23  C   UNL     1      -3.117  13.048 -37.888  0.00  0.00    +0.070 A 
ENDBRANCH  14  17
BRANCH   1  25
ATOM     24  C   UNL     1      -3.675  16.113 -33.106  0.00  0.00    +0.060 C 
ATOM     25  C   UNL     1      -2.252  15.840 -33.598  0.00  0.00    +0.210 C 
ATOM     26  C   UNL     1      -1.400  17.097 -33.418  0.00  0.00    +0.060 C 
ENDBRANCH   1  25
BRANCH  15  27
ATOM     27  N   UNL     1      -0.304  12.780 -31.314  0.00  0.00    -0.690 N 
ATOM     28  H   UNL     1      -0.698  12.141 -30.699  0.00  0.00    +0.430 HD
BRANCH  27  29
ATOM     29  C   UNL     1       0.450  13.848 -30.824  0.00  0.00    +0.170 A 
ATOM     30  C   UNL     1       0.017  14.552 -29.708  0.00  0.00    -0.010 A 
ATOM     31  C   UNL     1       0.764  15.608 -29.226  0.00  0.00    +0.080 A 
ATOM     32  C   UNL     1       1.945  15.965 -29.853  0.00  0.00    -0.070 A 
ATOM     33  C   UNL     1       2.380  15.265 -30.965  0.00  0.00    +0.080 A 
ATOM     34 CL   UNL     1       2.883  17.293 -29.245  0.00  0.00    -0.060 Cl
ATOM     35  C   UNL     1       1.639  14.205 -31.448  0.00  0.00    -0.060 A 
ENDBRANCH  27  29
ENDBRANCH  15  27
TORSDOF 4
ENDMDL
MODEL 3
REMARK VINA RESULT:      -7.3     16.360     17.484
REMARK  Name = ZINC000100037101
REMARK  6 active torsions:
REMARK  status: ('A' for Active; 'I' for Inactive)
REMARK    1  A    between atoms: C1_1  and  C2_2
REMARK    2  A    between atoms: C2_2  and  C3_3
REMARK    3  A    between atoms: C2_2  and  N4_4
REMARK    4  A    between atoms: N17_17  and  C18_18
REMARK    5  A    between atoms: C26_26  and  N27_27
REMARK    6  A    between atoms: N27_27  and  C28_28
REMARK                            x       y       z     vdW  Elec       q    Type
REMARK                         _______ _______ _______ _____ _____    ______ ____
ROOT
ATOM      1  N   UNL     1       5.597  -2.527 -32.857  0.00  0.00    -0.610 N 
ATOM      2  C   UNL     1       4.318  -2.656 -33.160  0.00  0.00    +0.360 A 
ATOM      3  C   UNL     1       3.934  -3.382 -34.309  0.00  0.00    -0.130 A 
ATOM      4  C   UNL     1       2.616  -3.514 -34.618  0.00  0.00    +0.260 A 
ATOM      5  C   UNL     1       1.589  -2.904 -33.757  0.00  0.00    +0.110 A 
ATOM      6  C   UNL     1       1.977  -2.177 -32.604  0.00  0.00    +0.170 A 
ATOM      7  N   UNL     1       0.312  -3.036 -34.065  0.00  0.00    -0.320 NA
ATOM      8  C   UNL     1      -0.076  -3.720 -35.152  0.00  0.00    +0.050 A 
ATOM      9  C   UNL     1      -1.446  -3.841 -35.449  0.00  0.00    +0.140 A 
ATOM     10  C   UNL     1      -1.846  -4.534 -36.553  0.00  0.00    +0.040 A 
ATOM     11  C   UNL     1      -0.914  -5.127 -37.394  0.00  0.00    +0.150 A 
ATOM     12  C   UNL     1       0.435  -5.025 -37.128  0.00  0.00    -0.010 A 
ATOM     13  C   UNL     1       0.868  -4.323 -36.008  0.00  0.00    +0.170 A 
ATOM     14  N   UNL     1       2.220  -4.218 -35.736  0.00  0.00    -0.390 N 
ATOM     15  C   UNL     1       3.291  -2.050 -32.295  0.00  0.00    +0.110 A 
ATOM     16  H   UNL     1       5.866  -1.951 -32.125  0.00  0.00    +0.430 HD
ENDROOT
BRANCH  14  17
ATOM     17  C   UNL     1       3.165  -4.812 -36.578  0.00  0.00    +0.060 A 
ATOM     18  C   UNL     1       3.648  -4.120 -37.681  0.00  0.00    +0.070 A 
ATOM     19  C   UNL     1       4.582  -4.710 -38.510  0.00  0.00    +0.060 A 
ATOM     20  C   UNL     1       5.037  -5.989 -38.242  0.00  0.00    -0.010 A 
ATOM     21  C   UNL     1       4.558  -6.682 -37.144  0.00  0.00    +0.060 A 
ATOM     22 CL   UNL     1       6.211  -6.727 -39.287  0.00  0.00    -0.030 Cl
ATOM     23  C   UNL     1       3.628  -6.094 -36.308  0.00  0.00    +0.070 A 
ENDBRANCH  14  17
BRANCH   1  25
ATOM     24  C   UNL     1       7.533  -2.250 -34.326  0.00  0.00    +0.060 C 
ATOM     25  C   UNL     1       6.610  -3.252 -33.629  0.00  0.00    +0.210 C 
ATOM     26  C   UNL     1       7.432  -4.135 -32.689  0.00  0.00    +0.060 C 
ENDBRANCH   1  25
BRANCH  15  27
ATOM     27  N   UNL     1       3.671  -1.337 -31.164  0.00  0.00    -0.690 N 
ATOM     28  H   UNL     1       4.111  -0.478 -31.258  0.00  0.00    +0.430 HD
BRANCH  27  29
ATOM     29  C   UNL     1       3.419  -1.858 -29.892  0.00  0.00    +0.170 A 
ATOM     30  C   UNL     1       4.138  -2.955 -29.434  0.00  0.00    -0.010 A 
ATOM     31  C   UNL     1       3.886  -3.467 -28.178  0.00  0.00    +0.080 A 
ATOM     32  C   UNL     1       2.920  -2.890 -27.373  0.00  0.00    -0.070 A 
ATOM     33  C   UNL     1       2.202  -1.797 -27.827  0.00  0.00    +0.080 A 
ATOM     34 CL   UNL     1       2.606  -3.536 -25.794  0.00  0.00    -0.060 Cl
ATOM     35  C   UNL     1       2.453  -1.276 -29.081  0.00  0.00    -0.060 A 
ENDBRANCH  27  29
ENDBRANCH  15  27
TORSDOF 4
ENDMDL
MODEL 4
REMARK VINA RESULT:      -7.3     16.479     19.240
REMARK  Name = ZINC000100037101
REMARK  6 active torsions:
REMARK  status: ('A' for Active; 'I' for Inactive)
REMARK    1  A    between atoms: C1_1  and  C2_2
REMARK    2  A    between atoms: C2_2  and  C3_3
REMARK    3  A    between atoms: C2_2  and  N4_4
REMARK    4  A    between atoms: N17_17  and  C18_18
REMARK    5  A    between atoms: C26_26  and  N27_27
REMARK    6  A    between atoms: N27_27  and  C28_28
REMARK                            x       y       z     vdW  Elec       q    Type
REMARK                         _______ _______ _______ _____ _____    ______ ____
ROOT
ATOM      1  N   UNL     1       3.534  -3.549 -35.407  0.00  0.00    -0.610 N 
ATOM      2  C   UNL     1       4.828  -3.441 -35.173  0.00  0.00    +0.360 A 
ATOM      3  C   UNL     1       5.753  -4.149 -35.973  0.00  0.00    -0.130 A 
ATOM      4  C   UNL     1       7.086  -4.034 -35.729  0.00  0.00    +0.260 A 
ATOM      5  C   UNL     1       7.568  -3.175 -34.634  0.00  0.00    +0.110 A 
ATOM      6  C   UNL     1       6.639  -2.466 -33.834  0.00  0.00    +0.170 A 
ATOM      7  N   UNL     1       8.864  -3.071 -34.404  0.00  0.00    -0.320 NA
ATOM      8  C   UNL     1       9.760  -3.735 -35.150  0.00  0.00    +0.050 A 
ATOM      9  C   UNL     1      11.134  -3.599 -34.876  0.00  0.00    +0.140 A 
ATOM     10  C   UNL     1      12.049  -4.272 -35.631  0.00  0.00    +0.040 A 
ATOM     11  C   UNL     1      11.643  -5.093 -36.673  0.00  0.00    +0.150 A 
ATOM     12  C   UNL     1      10.303  -5.245 -36.965  0.00  0.00    -0.010 A 
ATOM     13  C   UNL     1       9.350  -4.570 -36.210  0.00  0.00    +0.170 A 
ATOM     14  N   UNL     1       8.006  -4.718 -36.498  0.00  0.00    -0.390 N 
ATOM     15  C   UNL     1       5.310  -2.577 -34.081  0.00  0.00    +0.110 A 
ATOM     16  H   UNL     1       2.896  -3.141 -34.802  0.00  0.00    +0.430 HD
ENDROOT
BRANCH  14  17
ATOM     17  C   UNL     1       7.588  -5.542 -37.546  0.00  0.00    +0.060 A 
ATOM     18  C   UNL     1       7.220  -6.858 -37.293  0.00  0.00    +0.070 A 
ATOM     19  C   UNL     1       6.807  -7.670 -38.330  0.00  0.00    +0.060 A 
ATOM     20  C   UNL     1       6.759  -7.174 -39.621  0.00  0.00    -0.010 A 
ATOM     21  C   UNL     1       7.123  -5.864 -39.878  0.00  0.00    +0.060 A 
ATOM     22 CL   UNL     1       6.239  -8.199 -40.923  0.00  0.00    -0.030 Cl
ATOM     23  C   UNL     1       7.532  -5.046 -38.842  0.00  0.00    +0.070 A 
ENDBRANCH  14  17
BRANCH   1  25
ATOM     24  C   UNL     1       2.304  -5.538 -36.127  0.00  0.00    +0.060 C 
ATOM     25  C   UNL     1       3.061  -4.287 -36.582  0.00  0.00    +0.210 C 
ATOM     26  C   UNL     1       2.128  -3.396 -37.402  0.00  0.00    +0.060 C 
ENDBRANCH   1  25
BRANCH  15  27
ATOM     27  N   UNL     1       4.399  -1.881 -33.296  0.00  0.00    -0.690 N 
ATOM     28  H   UNL     1       3.920  -1.122 -33.666  0.00  0.00    +0.430 HD
BRANCH  27  29
ATOM     29  C   UNL     1       4.171  -2.274 -31.975  0.00  0.00    +0.170 A 
ATOM     30  C   UNL     1       4.121  -1.323 -30.965  0.00  0.00    -0.010 A 
ATOM     31  C   UNL     1       3.897  -1.715 -29.660  0.00  0.00    +0.080 A 
ATOM     32  C   UNL     1       3.721  -3.054 -29.358  0.00  0.00    -0.070 A 
ATOM     33  C   UNL     1       3.770  -4.004 -30.363  0.00  0.00    +0.080 A 
ATOM     34 CL   UNL     1       3.439  -3.543 -27.717  0.00  0.00    -0.060 Cl
ATOM     35  C   UNL     1       3.989  -3.617 -31.671  0.00  0.00    -0.060 A 
ENDBRANCH  27  29
ENDBRANCH  15  27
TORSDOF 4
ENDMDL
MODEL 5
REMARK VINA RESULT:      -7.1     20.347     22.316
REMARK  Name = ZINC000100037101
REMARK  6 active torsions:
REMARK  status: ('A' for Active; 'I' for Inactive)
REMARK    1  A    between atoms: C1_1  and  C2_2
REMARK    2  A    between atoms: C2_2  and  C3_3
REMARK    3  A    between atoms: C2_2  and  N4_4
REMARK    4  A    between atoms: N17_17  and  C18_18
REMARK    5  A    between atoms: C26_26  and  N27_27
REMARK    6  A    between atoms: N27_27  and  C28_28
REMARK                            x       y       z     vdW  Elec       q    Type
REMARK                         _______ _______ _______ _____ _____    ______ ____
ROOT
ATOM      1  N   UNL     1       2.195  -2.637 -22.089  0.00  0.00    -0.610 N 
ATOM      2  C   UNL     1       1.988  -2.020 -20.940  0.00  0.00    +0.360 A 
ATOM      3  C   UNL     1       0.671  -1.721 -20.527  0.00  0.00    -0.130 A 
ATOM      4  C   UNL     1       0.461  -1.086 -19.342  0.00  0.00    +0.260 A 
ATOM      5  C   UNL     1       1.602  -0.709 -18.491  0.00  0.00    +0.110 A 
ATOM      6  C   UNL     1       2.922  -1.011 -18.908  0.00  0.00    +0.170 A 
ATOM      7  N   UNL     1       1.389  -0.092 -17.344  0.00  0.00    -0.320 NA
ATOM      8  C   UNL     1       0.147   0.204 -16.931  0.00  0.00    +0.050 A 
ATOM      9  C   UNL     1      -0.043   0.862 -15.702  0.00  0.00    +0.140 A 
ATOM     10  C   UNL     1      -1.303   1.165 -15.278  0.00  0.00    +0.040 A 
ATOM     11  C   UNL     1      -2.409   0.831 -16.046  0.00  0.00    +0.150 A 
ATOM     12  C   UNL     1      -2.254   0.185 -17.255  0.00  0.00    -0.010 A 
ATOM     13  C   UNL     1      -0.979  -0.135 -17.710  0.00  0.00    +0.170 A 
ATOM     14  N   UNL     1      -0.818  -0.784 -18.920  0.00  0.00    -0.390 N 
ATOM     15  C   UNL     1       3.130  -1.650 -20.087  0.00  0.00    +0.110 A 
ATOM     16  H   UNL     1       3.099  -2.758 -22.418  0.00  0.00    +0.430 HD
ENDROOT
BRANCH  14  17
ATOM     17  C   UNL     1      -1.926  -1.125 -19.700  0.00  0.00    +0.060 A 
ATOM     18  C   UNL     1      -2.654  -2.272 -19.411  0.00  0.00    +0.070 A 
ATOM     19  C   UNL     1      -3.749  -2.606 -20.182  0.00  0.00    +0.060 A 
ATOM     20  C   UNL     1      -4.123  -1.799 -21.243  0.00  0.00    -0.010 A 
ATOM     21  C   UNL     1      -3.400  -0.655 -21.533  0.00  0.00    +0.060 A 
ATOM     22 CL   UNL     1      -5.500  -2.222 -22.211  0.00  0.00    -0.030 Cl
ATOM     23  C   UNL     1      -2.307  -0.313 -20.761  0.00  0.00    +0.070 A 
ENDBRANCH  14  17
BRANCH   1  25
ATOM     24  C   UNL     1       1.112  -2.557 -24.281  0.00  0.00    +0.060 C 
ATOM     25  C   UNL     1       1.059  -3.139 -22.867  0.00  0.00    +0.210 C 
ATOM     26  C   UNL     1       1.126  -4.666 -22.940  0.00  0.00    +0.060 C 
ENDBRANCH   1  25
BRANCH  15  27
ATOM     27  N   UNL     1       4.425  -1.945 -20.495  0.00  0.00    -0.690 N 
ATOM     28  H   UNL     1       4.725  -2.868 -20.525  0.00  0.00    +0.430 HD
BRANCH  27  29
ATOM     29  C   UNL     1       5.293  -0.915 -20.864  0.00  0.00    +0.170 A 
ATOM     30  C   UNL     1       6.279  -0.488 -19.984  0.00  0.00    -0.010 A 
ATOM     31  C   UNL     1       7.136   0.530 -20.351  0.00  0.00    +0.080 A 
ATOM     32  C   UNL     1       7.014   1.125 -21.595  0.00  0.00    -0.070 A 
ATOM     33  C   UNL     1       6.033   0.701 -22.474  0.00  0.00    +0.080 A 
ATOM     34 CL   UNL     1       8.093   2.405 -22.053  0.00  0.00    -0.060 Cl
ATOM     35  C   UNL     1       5.176  -0.321 -22.114  0.00  0.00    -0.060 A 
ENDBRANCH  27  29
ENDBRANCH  15  27
TORSDOF 4
ENDMDL
MODEL 6
REMARK VINA RESULT:      -7.1     17.963     20.985
REMARK  Name = ZINC000100037101
REMARK  6 active torsions:
REMARK  status: ('A' for Active; 'I' for Inactive)
REMARK    1  A    between atoms: C1_1  and  C2_2
REMARK    2  A    between atoms: C2_2  and  C3_3
REMARK    3  A    between atoms: C2_2  and  N4_4
REMARK    4  A    between atoms: N17_17  and  C18_18
REMARK    5  A    between atoms: C26_26  and  N27_27
REMARK    6  A    between atoms: N27_27  and  C28_28
REMARK                            x       y       z     vdW  Elec       q    Type
REMARK                         _______ _______ _______ _____ _____    ______ ____
ROOT
ATOM      1  N   UNL     1       2.387  -2.553 -20.000  0.00  0.00    -0.610 N 
ATOM      2  C   UNL     1       2.185  -2.415 -21.298  0.00  0.00    +0.360 A 
ATOM      3  C   UNL     1       0.867  -2.356 -21.805  0.00  0.00    -0.130 A 
ATOM      4  C   UNL     1       0.663  -2.213 -23.143  0.00  0.00    +0.260 A 
ATOM      5  C   UNL     1       1.810  -2.120 -24.062  0.00  0.00    +0.110 A 
ATOM      6  C   UNL     1       3.130  -2.179 -23.550  0.00  0.00    +0.170 A 
ATOM      7  N   UNL     1       1.602  -1.983 -25.358  0.00  0.00    -0.320 NA
ATOM      8  C   UNL     1       0.360  -1.926 -25.863  0.00  0.00    +0.050 A 
ATOM      9  C   UNL     1       0.177  -1.778 -27.250  0.00  0.00    +0.140 A 
ATOM     10  C   UNL     1      -1.083  -1.720 -27.769  0.00  0.00    +0.040 A 
ATOM     11  C   UNL     1      -2.195  -1.804 -26.942  0.00  0.00    +0.150 A 
ATOM     12  C   UNL     1      -2.045  -1.948 -25.579  0.00  0.00    -0.010 A 
ATOM     13  C   UNL     1      -0.771  -2.010 -25.025  0.00  0.00    +0.170 A 
ATOM     14  N   UNL     1      -0.615  -2.154 -23.659  0.00  0.00    -0.390 N 
ATOM     15  C   UNL     1       3.333  -2.316 -22.215  0.00  0.00    +0.110 A 
ATOM     16  H   UNL     1       3.285  -2.689 -19.661  0.00  0.00    +0.430 HD
ENDROOT
BRANCH  14  17
ATOM     17  C   UNL     1      -1.729  -2.238 -22.819  0.00  0.00    +0.060 A 
ATOM     18  C   UNL     1      -2.289  -1.084 -22.287  0.00  0.00    +0.070 A 
ATOM     19  C   UNL     1      -3.390  -1.170 -21.458  0.00  0.00    +0.060 A 
ATOM     20  C   UNL     1      -3.936  -2.406 -21.158  0.00  0.00    -0.010 A 
ATOM     21  C   UNL     1      -3.381  -3.558 -21.687  0.00  0.00    +0.060 A 
ATOM     22 CL   UNL     1      -5.320  -2.511 -20.115  0.00  0.00    -0.030 Cl
ATOM     23  C   UNL     1      -2.283  -3.477 -22.521  0.00  0.00    +0.070 A 
ENDBRANCH  14  17
BRANCH   1  25
ATOM     24  C   UNL     1       1.354  -3.662 -18.080  0.00  0.00    +0.060 C 
ATOM     25  C   UNL     1       1.253  -2.502 -19.073  0.00  0.00    +0.210 C 
ATOM     26  C   UNL     1       1.277  -1.175 -18.312  0.00  0.00    +0.060 C 
ENDBRANCH   1  25
BRANCH  15  27
ATOM     27  N   UNL     1       4.627  -2.374 -21.714  0.00  0.00    -0.690 N 
ATOM     28  H   UNL     1       4.966  -3.204 -21.341  0.00  0.00    +0.430 HD
BRANCH  27  29
ATOM     29  C   UNL     1       5.441  -1.239 -21.747  0.00  0.00    +0.170 A 
ATOM     30  C   UNL     1       6.613  -1.245 -22.492  0.00  0.00    -0.010 A 
ATOM     31  C   UNL     1       7.415  -0.122 -22.523  0.00  0.00    +0.080 A 
ATOM     32  C   UNL     1       7.053   1.010 -21.814  0.00  0.00    -0.070 A 
ATOM     33  C   UNL     1       5.885   1.019 -21.071  0.00  0.00    +0.080 A 
ATOM     34 CL   UNL     1       8.063   2.420 -21.855  0.00  0.00    -0.060 Cl
ATOM     35  C   UNL     1       5.075  -0.101 -21.041  0.00  0.00    -0.060 A 
ENDBRANCH  27  29
ENDBRANCH  15  27
TORSDOF 4
ENDMDL
MODEL 7
REMARK VINA RESULT:      -7.0     10.209     12.865
REMARK  Name = ZINC000100037101
REMARK  6 active torsions:
REMARK  status: ('A' for Active; 'I' for Inactive)
REMARK    1  A    between atoms: C1_1  and  C2_2
REMARK    2  A    between atoms: C2_2  and  C3_3
REMARK    3  A    between atoms: C2_2  and  N4_4
REMARK    4  A    between atoms: N17_17  and  C18_18
REMARK    5  A    between atoms: C26_26  and  N27_27
REMARK    6  A    between atoms: N27_27  and  C28_28
REMARK                            x       y       z     vdW  Elec       q    Type
REMARK                         _______ _______ _______ _____ _____    ______ ____
ROOT
ATOM      1  N   UNL     1      -5.316  17.117 -25.434  0.00  0.00    -0.610 N 
ATOM      2  C   UNL     1      -6.019  18.061 -26.031  0.00  0.00    +0.360 A 
ATOM      3  C   UNL     1      -6.060  18.126 -27.442  0.00  0.00    -0.130 A 
ATOM      4  C   UNL     1      -6.786  19.100 -28.055  0.00  0.00    +0.260 A 
ATOM      5  C   UNL     1      -7.529  20.086 -27.252  0.00  0.00    +0.110 A 
ATOM      6  C   UNL     1      -7.487  20.018 -25.837  0.00  0.00    +0.170 A 
ATOM      7  N   UNL     1      -8.230  21.028 -27.855  0.00  0.00    -0.320 NA
ATOM      8  C   UNL     1      -8.282  21.110 -29.193  0.00  0.00    +0.050 A 
ATOM      9  C   UNL     1      -9.040  22.127 -29.801  0.00  0.00    +0.140 A 
ATOM     10  C   UNL     1      -9.096  22.216 -31.161  0.00  0.00    +0.040 A 
ATOM     11  C   UNL     1      -8.412  21.309 -31.959  0.00  0.00    +0.150 A 
ATOM     12  C   UNL     1      -7.662  20.302 -31.391  0.00  0.00    -0.010 A 
ATOM     13  C   UNL     1      -7.588  20.190 -30.007  0.00  0.00    +0.170 A 
ATOM     14  N   UNL     1      -6.838  19.181 -29.431  0.00  0.00    -0.390 N 
ATOM     15  C   UNL     1      -6.767  19.043 -25.228  0.00  0.00    +0.110 A 
ATOM     16  H   UNL     1      -5.210  17.128 -24.470  0.00  0.00    +0.430 HD
ENDROOT
BRANCH  14  17
ATOM     17  C   UNL     1      -6.147  18.264 -30.227  0.00  0.00    +0.060 A 
ATOM     18  C   UNL     1      -6.749  17.067 -30.593  0.00  0.00    +0.070 A 
ATOM     19  C   UNL     1      -6.063  16.163 -31.381  0.00  0.00    +0.060 A 
ATOM     20  C   UNL     1      -4.778  16.449 -31.806  0.00  0.00    -0.010 A 
ATOM     21  C   UNL     1      -4.175  17.641 -31.444  0.00  0.00    +0.060 A 
ATOM     22 CL   UNL     1      -3.919  15.310 -32.796  0.00  0.00    -0.030 Cl
ATOM     23  C   UNL     1      -4.858  18.551 -30.661  0.00  0.00    +0.070 A 
ENDBRANCH  14  17
BRANCH   1  25
ATOM     24  C   UNL     1      -3.577  15.397 -25.414  0.00  0.00    +0.060 C 
ATOM     25  C   UNL     1      -4.695  16.053 -26.227  0.00  0.00    +0.210 C 
ATOM     26  C   UNL     1      -5.748  15.003 -26.586  0.00  0.00    +0.060 C 
ENDBRANCH   1  25
BRANCH  15  27
ATOM     27  N   UNL     1      -6.726  18.977 -23.840  0.00  0.00    -0.690 N 
ATOM     28  H   UNL     1      -6.847  18.125 -23.392  0.00  0.00    +0.430 HD
BRANCH  27  29
ATOM     29  C   UNL     1      -6.511  20.137 -23.092  0.00  0.00    +0.170 A 
ATOM     30  C   UNL     1      -7.519  20.637 -22.278  0.00  0.00    -0.010 A 
ATOM     31  C   UNL     1      -7.303  21.783 -21.540  0.00  0.00    +0.080 A 
ATOM     32  C   UNL     1      -6.084  22.434 -21.609  0.00  0.00    -0.070 A 
ATOM     33  C   UNL     1      -5.078  21.938 -22.418  0.00  0.00    +0.080 A 
ATOM     34 CL   UNL     1      -5.816  23.875 -20.679  0.00  0.00    -0.060 Cl
ATOM     35  C   UNL     1      -5.286  20.788 -23.155  0.00  0.00    -0.060 A 
ENDBRANCH  27  29
ENDBRANCH  15  27
TORSDOF 4
ENDMDL
MODEL 8
REMARK VINA RESULT:      -7.0      6.323     11.555
REMARK  Name = ZINC000100037101
REMARK  6 active torsions:
REMARK  status: ('A' for Active; 'I' for Inactive)
REMARK    1  A    between atoms: C1_1  and  C2_2
REMARK    2  A    between atoms: C2_2  and  C3_3
REMARK    3  A    between atoms: C2_2  and  N4_4
REMARK    4  A    between atoms: N17_17  and  C18_18
REMARK    5  A    between atoms: C26_26  and  N27_27
REMARK    6  A    between atoms: N27_27  and  C28_28
REMARK                            x       y       z     vdW  Elec       q    Type
REMARK                         _______ _______ _______ _____ _____    ______ ____
ROOT
ATOM      1  N   UNL     1      -0.035  18.667 -32.705  0.00  0.00    -0.610 N 
ATOM      2  C   UNL     1       0.773  18.425 -31.690  0.00  0.00    +0.360 A 
ATOM      3  C   UNL     1       1.826  19.320 -31.395  0.00  0.00    -0.130 A 
ATOM      4  C   UNL     1       2.657  19.067 -30.348  0.00  0.00    +0.260 A 
ATOM      5  C   UNL     1       2.461  17.864 -29.521  0.00  0.00    +0.110 A 
ATOM      6  C   UNL     1       1.404  16.969 -29.818  0.00  0.00    +0.170 A 
ATOM      7  N   UNL     1       3.272  17.627 -28.507  0.00  0.00    -0.320 NA
ATOM      8  C   UNL     1       4.280  18.461 -28.209  0.00  0.00    +0.050 A 
ATOM      9  C   UNL     1       5.124  18.176 -27.121  0.00  0.00    +0.140 A 
ATOM     10  C   UNL     1       6.150  19.021 -26.814  0.00  0.00    +0.040 A 
ATOM     11  C   UNL     1       6.374  20.167 -27.565  0.00  0.00    +0.150 A 
ATOM     12  C   UNL     1       5.562  20.472 -28.637  0.00  0.00    -0.010 A 
ATOM     13  C   UNL     1       4.509  19.626 -28.970  0.00  0.00    +0.170 A 
ATOM     14  N   UNL     1       3.691  19.928 -30.044  0.00  0.00    -0.390 N 
ATOM     15  C   UNL     1       0.573  17.225 -30.859  0.00  0.00    +0.110 A 
ATOM     16  H   UNL     1      -0.696  18.009 -32.966  0.00  0.00    +0.430 HD
ENDROOT
BRANCH  14  17
ATOM     17  C   UNL     1       3.909  21.079 -30.805  0.00  0.00    +0.060 A 
ATOM     18  C   UNL     1       4.741  21.033 -31.917  0.00  0.00    +0.070 A 
ATOM     19  C   UNL     1       4.953  22.172 -32.667  0.00  0.00    +0.060 A 
ATOM     20  C   UNL     1       4.338  23.360 -32.312  0.00  0.00    -0.010 A 
ATOM     21  C   UNL     1       3.509  23.411 -31.206  0.00  0.00    +0.060 A 
ATOM     22 CL   UNL     1       4.609  24.791 -33.258  0.00  0.00    -0.030 Cl
ATOM     23  C   UNL     1       3.288  22.272 -30.455  0.00  0.00    +0.070 A 
ENDBRANCH  14  17
BRANCH   1  25
ATOM     24  C   UNL     1       0.099  19.649 -34.942  0.00  0.00    +0.060 C 
ATOM     25  C   UNL     1       0.069  19.932 -33.438  0.00  0.00    +0.210 C 
ATOM     26  C   UNL     1      -1.137  20.813 -33.108  0.00  0.00    +0.060 C 
ENDBRANCH   1  25
BRANCH  15  27
ATOM     27  N   UNL     1      -0.464  16.346 -31.150  0.00  0.00    -0.690 N 
ATOM     28  H   UNL     1      -1.384  16.617 -31.004  0.00  0.00    +0.430 HD
BRANCH  27  29
ATOM     29  C   UNL     1      -0.181  15.074 -31.653  0.00  0.00    +0.170 A 
ATOM     30  C   UNL     1      -0.473  13.946 -30.897  0.00  0.00    -0.010 A 
ATOM     31  C   UNL     1      -0.191  12.690 -31.396  0.00  0.00    +0.080 A 
ATOM     32  C   UNL     1       0.380  12.554 -32.649  0.00  0.00    -0.070 A 
ATOM     33  C   UNL     1       0.670  13.675 -33.406  0.00  0.00    +0.080 A 
ATOM     34 CL   UNL     1       0.731  10.973 -33.274  0.00  0.00    -0.060 Cl
ATOM     35  C   UNL     1       0.387  14.935 -32.913  0.00  0.00    -0.060 A 
ENDBRANCH  27  29
ENDBRANCH  15  27
TORSDOF 4
ENDMDL
MODEL 9
REMARK VINA RESULT:      -7.0      4.098      7.182
REMARK  Name = ZINC000100037101
REMARK  6 active torsions:
REMARK  status: ('A' for Active; 'I' for Inactive)
REMARK    1  A    between atoms: C1_1  and  C2_2
REMARK    2  A    between atoms: C2_2  and  C3_3
REMARK    3  A    between atoms: C2_2  and  N4_4
REMARK    4  A    between atoms: N17_17  and  C18_18
REMARK    5  A    between atoms: C26_26  and  N27_27
REMARK    6  A    between atoms: N27_27  and  C28_28
REMARK                            x       y       z     vdW  Elec       q    Type
REMARK                         _______ _______ _______ _____ _____    ______ ____
ROOT
ATOM      1  N   UNL     1      -0.474  19.183 -32.831  0.00  0.00    -0.610 N 
ATOM      2  C   UNL     1      -0.218  17.897 -32.686  0.00  0.00    +0.360 A 
ATOM      3  C   UNL     1      -0.454  17.005 -33.757  0.00  0.00    -0.130 A 
ATOM      4  C   UNL     1      -0.188  15.679 -33.604  0.00  0.00    +0.260 A 
ATOM      5  C   UNL     1       0.344  15.172 -32.329  0.00  0.00    +0.110 A 
ATOM      6  C   UNL     1       0.581  16.069 -31.257  0.00  0.00    +0.170 A 
ATOM      7  N   UNL     1       0.598  13.884 -32.190  0.00  0.00    -0.320 NA
ATOM      8  C   UNL     1       0.381  13.018 -33.191  0.00  0.00    +0.050 A 
ATOM      9  C   UNL     1       0.663  11.653 -33.008  0.00  0.00    +0.140 A 
ATOM     10  C   UNL     1       0.444  10.768 -34.022  0.00  0.00    +0.040 A 
ATOM     11  C   UNL     1      -0.057  11.199 -35.243  0.00  0.00    +0.150 A 
ATOM     12  C   UNL     1      -0.343  12.532 -35.452  0.00  0.00    -0.010 A 
ATOM     13  C   UNL     1      -0.128  13.454 -34.432  0.00  0.00    +0.170 A 
ATOM     14  N   UNL     1      -0.412  14.792 -34.637  0.00  0.00    -0.390 N 
ATOM     15  C   UNL     1       0.320  17.391 -31.412  0.00  0.00    +0.110 A 
ATOM     16  H   UNL     1      -0.403  19.780 -32.070  0.00  0.00    +0.430 HD
ENDROOT
BRANCH  14  17
ATOM     17  C   UNL     1      -0.916  15.234 -35.862  0.00  0.00    +0.060 A 
ATOM     18  C   UNL     1      -0.048  15.666 -36.858  0.00  0.00    +0.070 A 
ATOM     19  C   UNL     1      -0.549  16.102 -38.068  0.00  0.00    +0.060 A 
ATOM     20  C   UNL     1      -1.915  16.109 -38.291  0.00  0.00    -0.010 A 
ATOM     21  C   UNL     1      -2.783  15.680 -37.302  0.00  0.00    +0.060 A 
ATOM     22 CL   UNL     1      -2.542  16.659 -39.814  0.00  0.00    -0.030 Cl
ATOM     23  C   UNL     1      -2.287  15.238 -36.091  0.00  0.00    +0.070 A 
ENDBRANCH  14  17
BRANCH   1  25
ATOM     24  C   UNL     1      -2.191  20.466 -34.011  0.00  0.00    +0.060 C 
ATOM     25  C   UNL     1      -0.866  19.710 -34.141  0.00  0.00    +0.210 C 
ATOM     26  C   UNL     1       0.216  20.661 -34.653  0.00  0.00    +0.060 C 
ENDBRANCH   1  25
BRANCH  15  27
ATOM     27  N   UNL     1       0.552  18.270 -30.361  0.00  0.00    -0.690 N 
ATOM     28  H   UNL     1      -0.195  18.641 -29.866  0.00  0.00    +0.430 HD
BRANCH  27  29
ATOM     29  C   UNL     1       1.861  18.619 -30.017  0.00  0.00    +0.170 A 
ATOM     30  C   UNL     1       2.464  18.047 -28.905  0.00  0.00    -0.010 A 
ATOM     31  C   UNL     1       3.757  18.394 -28.568  0.00  0.00    +0.080 A 
ATOM     32  C   UNL     1       4.453  19.309 -29.337  0.00  0.00    -0.070 A 
ATOM     33  C   UNL     1       3.855  19.880 -30.447  0.00  0.00    +0.080 A 
ATOM     34 CL   UNL     1       6.078  19.743 -28.911  0.00  0.00    -0.060 Cl
ATOM     35  C   UNL     1       2.563  19.533 -30.793  0.00  0.00    -0.060 A 
ENDBRANCH  27  29
ENDBRANCH  15  27
TORSDOF 4
ENDMDL
