REMARK  Name = ZINC000006927490
REMARK  4 active torsions:
REMARK  status: ('A' for Active; 'I' for Inactive)
REMARK    1  A    between atoms: C5_5  and  C6_6
REMARK    2  A    between atoms: C5_5  and  C12_12
REMARK    3  A    between atoms: N15_15  and  C17_17
REMARK    4  A    between atoms: C17_17  and  C18_18
REMARK                            x       y       z     vdW  Elec       q    Type
REMARK                         _______ _______ _______ _____ _____    ______ ____
ROOT
ATOM      1  O   UNL     1      -3.298   5.208  -2.138  0.00  0.00    -0.480 OA
ATOM      2  C   UNL     1      -2.330   4.866  -1.493  0.00  0.00    +0.520 C 
ATOM      3  C   UNL     1      -1.322   5.902  -1.070  0.00  0.00    +0.080 C 
ATOM      4  C   UNL     1       0.057   5.243  -0.953  0.00  0.00    +0.070 C 
ATOM      5  C   UNL     1      -0.049   4.058   0.013  0.00  0.00    -0.020 C 
ATOM      6  C   UNL     1      -1.127   3.123  -0.469  0.00  0.00    +0.530 C 
ATOM      7  O   UNL     1      -1.042   1.940  -0.219  0.00  0.00    -0.480 OA
ATOM      8  N   UNL     1      -2.180   3.574  -1.166  0.00  0.00    -0.670 N 
ATOM      9  H   UNL     1      -2.857   2.940  -1.451  0.00  0.00    +0.420 HD
ENDROOT
BRANCH   5  10
ATOM     10  C   UNL     1      -0.402   4.568   1.412  0.00  0.00    +0.010 C 
ATOM     11  C   UNL     1      -0.527   3.382   2.373  0.00  0.00    +0.060 C 
ATOM     12  C   UNL     1      -0.800   3.903   3.785  0.00  0.00    +0.270 C 
ATOM     13  N   UNL     1       0.305   4.768   4.214  0.00  0.00    -0.380 N 
ATOM     14  C   UNL     1       0.386   5.944   3.340  0.00  0.00    +0.260 C 
ATOM     15  H   UNL     1       1.172   4.253   4.165  0.00  0.00    +0.420 HD
ATOM     16  C   UNL     1       0.705   5.501   1.910  0.00  0.00    +0.070 C 
BRANCH  13  17
ATOM     17  C   UNL     1       0.075   5.205   5.598  0.00  0.00    +0.320 C 
BRANCH  17  18
ATOM     18  C   UNL     1       1.144   6.189   5.998  0.00  0.00    -0.160 A 
ATOM     19  C   UNL     1       2.317   5.739   6.574  0.00  0.00    +0.040 A 
ATOM     20  C   UNL     1       3.297   6.642   6.942  0.00  0.00    +0.030 A 
ATOM     21  C   UNL     1       3.104   7.994   6.733  0.00  0.00    +0.060 A 
ATOM     22  C   UNL     1       1.931   8.444   6.156  0.00  0.00    +0.030 A 
ATOM     23  C   UNL     1       0.953   7.541   5.784  0.00  0.00    +0.030 A 
ENDBRANCH  17  18
ENDBRANCH  13  17
ENDBRANCH   5  10
BRANCH   5  24
ATOM     24  C   UNL     1       1.268   3.328   0.060  0.00  0.00    -0.070 A 
ATOM     25  C   UNL     1       1.941   3.192   1.260  0.00  0.00    -0.020 A 
ATOM     26  C   UNL     1       3.149   2.522   1.303  0.00  0.00    +0.010 A 
ATOM     27  C   UNL     1       3.684   1.987   0.147  0.00  0.00    +0.020 A 
ATOM     28  C   UNL     1       3.011   2.121  -1.053  0.00  0.00    +0.030 A 
ATOM     29  C   UNL     1       1.801   2.788  -1.096  0.00  0.00    +0.020 A 
ENDBRANCH   5  24
TORSDOF 4
