MODEL 1
REMARK VINA RESULT:      -7.3      0.000      0.000
REMARK  Name = ZINC000006927490
REMARK  4 active torsions:
REMARK  status: ('A' for Active; 'I' for Inactive)
REMARK    1  A    between atoms: C5_5  and  C6_6
REMARK    2  A    between atoms: C5_5  and  C12_12
REMARK    3  A    between atoms: N15_15  and  C17_17
REMARK    4  A    between atoms: C17_17  and  C18_18
REMARK                            x       y       z     vdW  Elec       q    Type
REMARK                         _______ _______ _______ _____ _____    ______ ____
ROOT
ATOM      1  O   UNL     1       0.578  10.573 -33.321  0.00  0.00    -0.480 OA
ATOM      2  C   UNL     1       0.602  11.755 -33.053  0.00  0.00    +0.520 C 
ATOM      3  C   UNL     1       1.435  12.685 -33.895  0.00  0.00    +0.080 C 
ATOM      4  C   UNL     1       1.900  13.864 -33.032  0.00  0.00    +0.070 C 
ATOM      5  C   UNL     1       0.667  14.532 -32.413  0.00  0.00    -0.020 C 
ATOM      6  C   UNL     1      -0.124  13.500 -31.652  0.00  0.00    +0.530 C 
ATOM      7  O   UNL     1      -0.782  13.845 -30.695  0.00  0.00    -0.480 OA
ATOM      8  N   UNL     1      -0.116  12.210 -32.015  0.00  0.00    -0.670 N 
ATOM      9  H   UNL     1      -0.646  11.578 -31.504  0.00  0.00    +0.420 HD
ENDROOT
BRANCH   5  10
ATOM     10  C   UNL     1      -0.203  15.128 -33.522  0.00  0.00    +0.010 C 
ATOM     11  C   UNL     1       0.434  14.837 -34.885  0.00  0.00    +0.060 C 
ATOM     12  C   UNL     1      -0.480  15.364 -35.992  0.00  0.00    +0.270 C 
ATOM     13  N   UNL     1      -1.787  14.702 -35.910  0.00  0.00    -0.380 N 
ATOM     14  C   UNL     1      -2.435  15.034 -34.636  0.00  0.00    +0.260 C 
ATOM     15  H   UNL     1      -1.661  13.703 -35.971  0.00  0.00    +0.420 HD
ATOM     16  C   UNL     1      -1.596  14.494 -33.475  0.00  0.00    +0.070 C 
BRANCH  13  17
ATOM     17  C   UNL     1      -2.636  15.156 -37.020  0.00  0.00    +0.320 C 
BRANCH  17  18
ATOM     18  C   UNL     1      -3.029  13.973 -37.867  0.00  0.00    -0.160 A 
ATOM     19  C   UNL     1      -3.670  14.171 -39.076  0.00  0.00    +0.040 A 
ATOM     20  C   UNL     1      -4.032  13.086 -39.852  0.00  0.00    +0.030 A 
ATOM     21  C   UNL     1      -3.751  11.804 -39.421  0.00  0.00    +0.060 A 
ATOM     22  C   UNL     1      -3.108  11.606 -38.213  0.00  0.00    +0.030 A 
ATOM     23  C   UNL     1      -2.743  12.691 -37.438  0.00  0.00    +0.030 A 
ENDBRANCH  17  18
ENDBRANCH  13  17
ENDBRANCH   5  10
BRANCH   5  24
ATOM     24  C   UNL     1       1.106  15.625 -31.474  0.00  0.00    -0.070 A 
ATOM     25  C   UNL     1       0.627  16.912 -31.639  0.00  0.00    -0.020 A 
ATOM     26  C   UNL     1       1.029  17.915 -30.777  0.00  0.00    +0.010 A 
ATOM     27  C   UNL     1       1.909  17.631 -29.750  0.00  0.00    +0.020 A 
ATOM     28  C   UNL     1       2.386  16.345 -29.583  0.00  0.00    +0.030 A 
ATOM     29  C   UNL     1       1.982  15.341 -30.443  0.00  0.00    +0.020 A 
ENDBRANCH   5  24
TORSDOF 4
ENDMDL
MODEL 2
REMARK VINA RESULT:      -7.3      3.824      5.991
REMARK  Name = ZINC000006927490
REMARK  4 active torsions:
REMARK  status: ('A' for Active; 'I' for Inactive)
REMARK    1  A    between atoms: C5_5  and  C6_6
REMARK    2  A    between atoms: C5_5  and  C12_12
REMARK    3  A    between atoms: N15_15  and  C17_17
REMARK    4  A    between atoms: C17_17  and  C18_18
REMARK                            x       y       z     vdW  Elec       q    Type
REMARK                         _______ _______ _______ _____ _____    ______ ____
ROOT
ATOM      1  O   UNL     1      -0.810  12.235 -36.982  0.00  0.00    -0.480 OA
ATOM      2  C   UNL     1      -0.742  12.824 -35.924  0.00  0.00    +0.520 C 
ATOM      3  C   UNL     1      -0.412  14.294 -35.919  0.00  0.00    +0.080 C 
ATOM      4  C   UNL     1       0.311  14.641 -34.612  0.00  0.00    +0.070 C 
ATOM      5  C   UNL     1      -0.569  14.204 -33.436  0.00  0.00    -0.020 C 
ATOM      6  C   UNL     1      -0.891  12.739 -33.578  0.00  0.00    +0.530 C 
ATOM      7  O   UNL     1      -1.090  12.076 -32.583  0.00  0.00    -0.480 OA
ATOM      8  N   UNL     1      -0.966  12.156 -34.783  0.00  0.00    -0.670 N 
ATOM      9  H   UNL     1      -1.184  11.212 -34.832  0.00  0.00    +0.420 HD
ENDROOT
BRANCH   5  10
ATOM     10  C   UNL     1      -1.867  15.016 -33.439  0.00  0.00    +0.010 C 
ATOM     11  C   UNL     1      -2.942  14.265 -32.647  0.00  0.00    +0.060 C 
ATOM     12  C   UNL     1      -4.210  15.118 -32.585  0.00  0.00    +0.270 C 
ATOM     13  N   UNL     1      -3.915  16.395 -31.924  0.00  0.00    -0.380 N 
ATOM     14  C   UNL     1      -2.938  17.151 -32.715  0.00  0.00    +0.260 C 
ATOM     15  H   UNL     1      -3.537  16.217 -31.005  0.00  0.00    +0.420 HD
ATOM     16  C   UNL     1      -1.619  16.376 -32.782  0.00  0.00    +0.070 C 
BRANCH  13  17
ATOM     17  C   UNL     1      -5.151  17.178 -31.799  0.00  0.00    +0.320 C 
BRANCH  17  18
ATOM     18  C   UNL     1      -5.517  17.311 -30.343  0.00  0.00    -0.160 A 
ATOM     19  C   UNL     1      -5.116  18.425 -29.629  0.00  0.00    +0.040 A 
ATOM     20  C   UNL     1      -5.450  18.546 -28.293  0.00  0.00    +0.030 A 
ATOM     21  C   UNL     1      -6.185  17.555 -27.672  0.00  0.00    +0.060 A 
ATOM     22  C   UNL     1      -6.587  16.442 -28.387  0.00  0.00    +0.030 A 
ATOM     23  C   UNL     1      -6.257  16.322 -29.724  0.00  0.00    +0.030 A 
ENDBRANCH  17  18
ENDBRANCH  13  17
ENDBRANCH   5  10
BRANCH   5  24
ATOM     24  C   UNL     1       0.168  14.435 -32.143  0.00  0.00    -0.070 A 
ATOM     25  C   UNL     1      -0.489  14.282 -30.936  0.00  0.00    -0.020 A 
ATOM     26  C   UNL     1       0.188  14.494 -29.749  0.00  0.00    +0.010 A 
ATOM     27  C   UNL     1       1.520  14.859 -29.769  0.00  0.00    +0.020 A 
ATOM     28  C   UNL     1       2.177  15.011 -30.976  0.00  0.00    +0.030 A 
ATOM     29  C   UNL     1       1.502  14.796 -32.163  0.00  0.00    +0.020 A 
ENDBRANCH   5  24
TORSDOF 4
ENDMDL
MODEL 3
REMARK VINA RESULT:      -7.3     17.858     20.278
REMARK  Name = ZINC000006927490
REMARK  4 active torsions:
REMARK  status: ('A' for Active; 'I' for Inactive)
REMARK    1  A    between atoms: C5_5  and  C6_6
REMARK    2  A    between atoms: C5_5  and  C12_12
REMARK    3  A    between atoms: N15_15  and  C17_17
REMARK    4  A    between atoms: C17_17  and  C18_18
REMARK                            x       y       z     vdW  Elec       q    Type
REMARK                         _______ _______ _______ _____ _____    ______ ____
ROOT
ATOM      1  O   UNL     1       3.240  -2.004 -31.641  0.00  0.00    -0.480 OA
ATOM      2  C   UNL     1       4.148  -2.476 -32.293  0.00  0.00    +0.520 C 
ATOM      3  C   UNL     1       4.334  -3.970 -32.322  0.00  0.00    +0.080 C 
ATOM      4  C   UNL     1       5.819  -4.287 -32.537  0.00  0.00    +0.070 C 
ATOM      5  C   UNL     1       6.288  -3.583 -33.815  0.00  0.00    -0.020 C 
ATOM      6  C   UNL     1       5.994  -2.110 -33.704  0.00  0.00    +0.530 C 
ATOM      7  O   UNL     1       6.703  -1.318 -34.286  0.00  0.00    -0.480 OA
ATOM      8  N   UNL     1       4.962  -1.659 -32.976  0.00  0.00    -0.670 N 
ATOM      9  H   UNL     1       4.801  -0.703 -32.937  0.00  0.00    +0.420 HD
ENDROOT
BRANCH   5  10
ATOM     10  C   UNL     1       5.546  -4.164 -35.021  0.00  0.00    +0.010 C 
ATOM     11  C   UNL     1       5.735  -3.244 -36.230  0.00  0.00    +0.060 C 
ATOM     12  C   UNL     1       5.060  -3.869 -37.452  0.00  0.00    +0.270 C 
ATOM     13  N   UNL     1       5.661  -5.178 -37.732  0.00  0.00    -0.380 N 
ATOM     14  C   UNL     1       5.421  -6.088 -36.606  0.00  0.00    +0.260 C 
ATOM     15  H   UNL     1       6.655  -5.068 -37.868  0.00  0.00    +0.420 HD
ATOM     16  C   UNL     1       6.112  -5.548 -35.351  0.00  0.00    +0.070 C 
BRANCH  13  17
ATOM     17  C   UNL     1       5.061  -5.742 -38.949  0.00  0.00    +0.320 C 
BRANCH  17  18
ATOM     18  C   UNL     1       6.117  -5.868 -40.017  0.00  0.00    -0.160 A 
ATOM     19  C   UNL     1       5.754  -5.874 -41.350  0.00  0.00    +0.040 A 
ATOM     20  C   UNL     1       6.723  -5.991 -42.330  0.00  0.00    +0.030 A 
ATOM     21  C   UNL     1       8.054  -6.101 -41.975  0.00  0.00    +0.060 A 
ATOM     22  C   UNL     1       8.417  -6.094 -40.641  0.00  0.00    +0.030 A 
ATOM     23  C   UNL     1       7.449  -5.973 -39.662  0.00  0.00    +0.030 A 
ENDBRANCH  17  18
ENDBRANCH  13  17
ENDBRANCH   5  10
BRANCH   5  24
ATOM     24  C   UNL     1       7.770  -3.790 -33.988  0.00  0.00    -0.070 A 
ATOM     25  C   UNL     1       8.387  -3.422 -35.169  0.00  0.00    -0.020 A 
ATOM     26  C   UNL     1       9.747  -3.611 -35.327  0.00  0.00    +0.010 A 
ATOM     27  C   UNL     1      10.490  -4.168 -34.305  0.00  0.00    +0.020 A 
ATOM     28  C   UNL     1       9.875  -4.535 -33.123  0.00  0.00    +0.030 A 
ATOM     29  C   UNL     1       8.516  -4.343 -32.962  0.00  0.00    +0.020 A 
ENDBRANCH   5  24
TORSDOF 4
ENDMDL
MODEL 4
REMARK VINA RESULT:      -7.2     17.163     19.491
REMARK  Name = ZINC000006927490
REMARK  4 active torsions:
REMARK  status: ('A' for Active; 'I' for Inactive)
REMARK    1  A    between atoms: C5_5  and  C6_6
REMARK    2  A    between atoms: C5_5  and  C12_12
REMARK    3  A    between atoms: N15_15  and  C17_17
REMARK    4  A    between atoms: C17_17  and  C18_18
REMARK                            x       y       z     vdW  Elec       q    Type
REMARK                         _______ _______ _______ _____ _____    ______ ____
ROOT
ATOM      1  O   UNL     1       0.656  -1.696 -33.526  0.00  0.00    -0.480 OA
ATOM      2  C   UNL     1       0.989  -2.446 -34.418  0.00  0.00    +0.520 C 
ATOM      3  C   UNL     1       1.189  -3.908 -34.116  0.00  0.00    +0.080 C 
ATOM      4  C   UNL     1       2.238  -4.480 -35.076  0.00  0.00    +0.070 C 
ATOM      5  C   UNL     1       1.784  -4.206 -36.514  0.00  0.00    -0.020 C 
ATOM      6  C   UNL     1       1.551  -2.728 -36.685  0.00  0.00    +0.530 C 
ATOM      7  O   UNL     1       1.710  -2.224 -37.776  0.00  0.00    -0.480 OA
ATOM      8  N   UNL     1       1.168  -1.960 -35.655  0.00  0.00    -0.670 N 
ATOM      9  H   UNL     1       1.020  -1.013 -35.809  0.00  0.00    +0.420 HD
ENDROOT
BRANCH   5  10
ATOM     10  C   UNL     1       0.485  -4.965 -36.794  0.00  0.00    +0.010 C 
ATOM     11  C   UNL     1       0.101  -5.794 -35.565  0.00  0.00    +0.060 C 
ATOM     12  C   UNL     1      -1.239  -6.486 -35.821  0.00  0.00    +0.270 C 
ATOM     13  N   UNL     1      -2.274  -5.478 -36.075  0.00  0.00    -0.380 N 
ATOM     14  C   UNL     1      -1.950  -4.726 -37.293  0.00  0.00    +0.260 C 
ATOM     15  H   UNL     1      -2.323  -4.843 -35.292  0.00  0.00    +0.420 HD
ATOM     16  C   UNL     1      -0.636  -3.966 -37.093  0.00  0.00    +0.070 C 
BRANCH  13  17
ATOM     17  C   UNL     1      -3.573  -6.143 -36.246  0.00  0.00    +0.320 C 
BRANCH  17  18
ATOM     18  C   UNL     1      -4.670  -5.237 -35.748  0.00  0.00    -0.160 A 
ATOM     19  C   UNL     1      -5.973  -5.437 -36.163  0.00  0.00    +0.040 A 
ATOM     20  C   UNL     1      -6.979  -4.606 -35.707  0.00  0.00    +0.030 A 
ATOM     21  C   UNL     1      -6.682  -3.576 -34.836  0.00  0.00    +0.060 A 
ATOM     22  C   UNL     1      -5.378  -3.376 -34.420  0.00  0.00    +0.030 A 
ATOM     23  C   UNL     1      -4.373  -4.210 -34.872  0.00  0.00    +0.030 A 
ENDBRANCH  17  18
ENDBRANCH  13  17
ENDBRANCH   5  10
BRANCH   5  24
ATOM     24  C   UNL     1       2.851  -4.663 -37.474  0.00  0.00    -0.070 A 
ATOM     25  C   UNL     1       2.510  -5.426 -38.575  0.00  0.00    -0.020 A 
ATOM     26  C   UNL     1       3.489  -5.845 -39.456  0.00  0.00    +0.010 A 
ATOM     27  C   UNL     1       4.809  -5.500 -39.238  0.00  0.00    +0.020 A 
ATOM     28  C   UNL     1       5.151  -4.735 -38.138  0.00  0.00    +0.030 A 
ATOM     29  C   UNL     1       4.172  -4.313 -37.258  0.00  0.00    +0.020 A 
ENDBRANCH   5  24
TORSDOF 4
ENDMDL
MODEL 5
REMARK VINA RESULT:      -7.1     15.351     18.660
REMARK  Name = ZINC000006927490
REMARK  4 active torsions:
REMARK  status: ('A' for Active; 'I' for Inactive)
REMARK    1  A    between atoms: C5_5  and  C6_6
REMARK    2  A    between atoms: C5_5  and  C12_12
REMARK    3  A    between atoms: N15_15  and  C17_17
REMARK    4  A    between atoms: C17_17  and  C18_18
REMARK                            x       y       z     vdW  Elec       q    Type
REMARK                         _______ _______ _______ _____ _____    ______ ____
ROOT
ATOM      1  O   UNL     1       3.719  16.067 -14.887  0.00  0.00    -0.480 OA
ATOM      2  C   UNL     1       2.520  16.209 -14.778  0.00  0.00    +0.520 C 
ATOM      3  C   UNL     1       1.970  17.549 -14.365  0.00  0.00    +0.080 C 
ATOM      4  C   UNL     1       0.650  17.341 -13.615  0.00  0.00    +0.070 C 
ATOM      5  C   UNL     1      -0.299  16.537 -14.511  0.00  0.00    -0.020 C 
ATOM      6  C   UNL     1       0.375  15.252 -14.916  0.00  0.00    +0.530 C 
ATOM      7  O   UNL     1      -0.302  14.273 -15.145  0.00  0.00    -0.480 OA
ATOM      8  N   UNL     1       1.709  15.171 -15.032  0.00  0.00    -0.670 N 
ATOM      9  H   UNL     1       2.103  14.327 -15.303  0.00  0.00    +0.420 HD
ENDROOT
BRANCH   5  10
ATOM     10  C   UNL     1      -0.638  17.353 -15.761  0.00  0.00    +0.010 C 
ATOM     11  C   UNL     1       0.035  18.726 -15.673  0.00  0.00    +0.060 C 
ATOM     12  C   UNL     1      -0.241  19.506 -16.960  0.00  0.00    +0.270 C 
ATOM     13  N   UNL     1       0.297  18.769 -18.109  0.00  0.00    -0.380 N 
ATOM     14  C   UNL     1      -0.393  17.480 -18.242  0.00  0.00    +0.260 C 
ATOM     15  H   UNL     1       1.284  18.608 -17.971  0.00  0.00    +0.420 HD
ATOM     16  C   UNL     1      -0.123  16.622 -17.003  0.00  0.00    +0.070 C 
BRANCH  13  17
ATOM     17  C   UNL     1       0.097  19.556 -19.333  0.00  0.00    +0.320 C 
BRANCH  17  18
ATOM     18  C   UNL     1       1.386  19.610 -20.112  0.00  0.00    -0.160 A 
ATOM     19  C   UNL     1       2.207  18.499 -20.167  0.00  0.00    +0.040 A 
ATOM     20  C   UNL     1       3.390  18.549 -20.880  0.00  0.00    +0.030 A 
ATOM     21  C   UNL     1       3.751  19.709 -21.539  0.00  0.00    +0.060 A 
ATOM     22  C   UNL     1       2.929  20.819 -21.485  0.00  0.00    +0.030 A 
ATOM     23  C   UNL     1       1.744  20.768 -20.775  0.00  0.00    +0.030 A 
ENDBRANCH  17  18
ENDBRANCH  13  17
ENDBRANCH   5  10
BRANCH   5  24
ATOM     24  C   UNL     1      -1.564  16.226 -13.754  0.00  0.00    -0.070 A 
ATOM     25  C   UNL     1      -2.785  16.273 -14.399  0.00  0.00    -0.020 A 
ATOM     26  C   UNL     1      -3.945  15.988 -13.704  0.00  0.00    +0.010 A 
ATOM     27  C   UNL     1      -3.884  15.654 -12.365  0.00  0.00    +0.020 A 
ATOM     28  C   UNL     1      -2.663  15.605 -11.719  0.00  0.00    +0.030 A 
ATOM     29  C   UNL     1      -1.502  15.887 -12.415  0.00  0.00    +0.020 A 
ENDBRANCH   5  24
TORSDOF 4
ENDMDL
MODEL 6
REMARK VINA RESULT:      -7.1      3.402      5.669
REMARK  Name = ZINC000006927490
REMARK  4 active torsions:
REMARK  status: ('A' for Active; 'I' for Inactive)
REMARK    1  A    between atoms: C5_5  and  C6_6
REMARK    2  A    between atoms: C5_5  and  C12_12
REMARK    3  A    between atoms: N15_15  and  C17_17
REMARK    4  A    between atoms: C17_17  and  C18_18
REMARK                            x       y       z     vdW  Elec       q    Type
REMARK                         _______ _______ _______ _____ _____    ______ ____
ROOT
ATOM      1  O   UNL     1      -2.891  19.445 -38.396  0.00  0.00    -0.480 OA
ATOM      2  C   UNL     1      -2.486  18.464 -37.808  0.00  0.00    +0.520 C 
ATOM      3  C   UNL     1      -3.472  17.558 -37.119  0.00  0.00    +0.080 C 
ATOM      4  C   UNL     1      -2.788  16.890 -35.921  0.00  0.00    +0.070 C 
ATOM      5  C   UNL     1      -1.532  16.166 -36.418  0.00  0.00    -0.020 C 
ATOM      6  C   UNL     1      -0.652  17.148 -37.146  0.00  0.00    +0.530 C 
ATOM      7  O   UNL     1       0.548  16.978 -37.154  0.00  0.00    -0.480 OA
ATOM      8  N   UNL     1      -1.170  18.205 -37.789  0.00  0.00    -0.670 N 
ATOM      9  H   UNL     1      -0.570  18.809 -38.253  0.00  0.00    +0.420 HD
ENDROOT
BRANCH   5  10
ATOM     10  C   UNL     1      -1.934  15.037 -37.369  0.00  0.00    +0.010 C 
ATOM     11  C   UNL     1      -0.756  14.695 -38.286  0.00  0.00    +0.060 C 
ATOM     12  C   UNL     1      -1.137  13.512 -39.178  0.00  0.00    +0.270 C 
ATOM     13  N   UNL     1      -1.463  12.350 -38.344  0.00  0.00    -0.380 N 
ATOM     14  C   UNL     1      -2.636  12.646 -37.514  0.00  0.00    +0.260 C 
ATOM     15  H   UNL     1      -0.677  12.133 -37.749  0.00  0.00    +0.420 HD
ATOM     16  C   UNL     1      -2.312  13.795 -36.557  0.00  0.00    +0.070 C 
BRANCH  13  17
ATOM     17  C   UNL     1      -1.755  11.196 -39.206  0.00  0.00    +0.320 C 
BRANCH  17  18
ATOM     18  C   UNL     1      -1.400   9.924 -38.480  0.00  0.00    -0.160 A 
ATOM     19  C   UNL     1      -2.222   8.818 -38.581  0.00  0.00    +0.040 A 
ATOM     20  C   UNL     1      -1.896   7.652 -37.914  0.00  0.00    +0.030 A 
ATOM     21  C   UNL     1      -0.749   7.592 -37.147  0.00  0.00    +0.060 A 
ATOM     22  C   UNL     1       0.074   8.699 -37.046  0.00  0.00    +0.030 A 
ATOM     23  C   UNL     1      -0.249   9.863 -37.717  0.00  0.00    +0.030 A 
ENDBRANCH  17  18
ENDBRANCH  13  17
ENDBRANCH   5  10
BRANCH   5  24
ATOM     24  C   UNL     1      -0.783  15.593 -35.243  0.00  0.00    -0.070 A 
ATOM     25  C   UNL     1       0.162  14.604 -35.441  0.00  0.00    -0.020 A 
ATOM     26  C   UNL     1       0.849  14.078 -34.363  0.00  0.00    +0.010 A 
ATOM     27  C   UNL     1       0.592  14.543 -33.087  0.00  0.00    +0.020 A 
ATOM     28  C   UNL     1      -0.351  15.533 -32.888  0.00  0.00    +0.030 A 
ATOM     29  C   UNL     1      -1.036  16.062 -33.967  0.00  0.00    +0.020 A 
ENDBRANCH   5  24
TORSDOF 4
ENDMDL
MODEL 7
REMARK VINA RESULT:      -7.1     16.659     19.028
REMARK  Name = ZINC000006927490
REMARK  4 active torsions:
REMARK  status: ('A' for Active; 'I' for Inactive)
REMARK    1  A    between atoms: C5_5  and  C6_6
REMARK    2  A    between atoms: C5_5  and  C12_12
REMARK    3  A    between atoms: N15_15  and  C17_17
REMARK    4  A    between atoms: C17_17  and  C18_18
REMARK                            x       y       z     vdW  Elec       q    Type
REMARK                         _______ _______ _______ _____ _____    ______ ____
ROOT
ATOM      1  O   UNL     1       0.458  -2.085 -33.867  0.00  0.00    -0.480 OA
ATOM      2  C   UNL     1       1.601  -2.345 -33.555  0.00  0.00    +0.520 C 
ATOM      3  C   UNL     1       2.363  -1.385 -32.679  0.00  0.00    +0.080 C 
ATOM      4  C   UNL     1       3.858  -1.491 -33.000  0.00  0.00    +0.070 C 
ATOM      5  C   UNL     1       4.290  -2.952 -32.833  0.00  0.00    -0.020 C 
ATOM      6  C   UNL     1       3.423  -3.826 -33.700  0.00  0.00    +0.530 C 
ATOM      7  O   UNL     1       3.874  -4.861 -34.140  0.00  0.00    -0.480 OA
ATOM      8  N   UNL     1       2.160  -3.483 -33.993  0.00  0.00    -0.670 N 
ATOM      9  H   UNL     1       1.631  -4.077 -34.548  0.00  0.00    +0.420 HD
ENDROOT
BRANCH   5  10
ATOM     10  C   UNL     1       4.134  -3.368 -31.369  0.00  0.00    +0.010 C 
ATOM     11  C   UNL     1       3.998  -2.119 -30.493  0.00  0.00    +0.060 C 
ATOM     12  C   UNL     1       3.761  -2.543 -29.042  0.00  0.00    +0.270 C 
ATOM     13  N   UNL     1       2.532  -3.340 -28.956  0.00  0.00    -0.380 N 
ATOM     14  C   UNL     1       2.681  -4.574 -29.735  0.00  0.00    +0.260 C 
ATOM     15  H   UNL     1       1.758  -2.803 -29.321  0.00  0.00    +0.420 HD
ATOM     16  C   UNL     1       2.876  -4.228 -31.214  0.00  0.00    +0.070 C 
BRANCH  13  17
ATOM     17  C   UNL     1       2.268  -3.680 -27.551  0.00  0.00    +0.320 C 
BRANCH  17  18
ATOM     18  C   UNL     1       1.085  -2.890 -27.056  0.00  0.00    -0.160 A 
ATOM     19  C   UNL     1       0.094  -2.503 -27.939  0.00  0.00    +0.040 A 
ATOM     20  C   UNL     1      -0.991  -1.776 -27.484  0.00  0.00    +0.030 A 
ATOM     21  C   UNL     1      -1.085  -1.438 -26.148  0.00  0.00    +0.060 A 
ATOM     22  C   UNL     1      -0.095  -1.826 -25.265  0.00  0.00    +0.030 A 
ATOM     23  C   UNL     1       0.988  -2.556 -25.718  0.00  0.00    +0.030 A 
ENDBRANCH  17  18
ENDBRANCH  13  17
ENDBRANCH   5  10
BRANCH   5  24
ATOM     24  C   UNL     1       5.731  -3.101 -33.248  0.00  0.00    -0.070 A 
ATOM     25  C   UNL     1       6.582  -3.907 -32.515  0.00  0.00    -0.020 A 
ATOM     26  C   UNL     1       7.904  -4.043 -32.897  0.00  0.00    +0.010 A 
ATOM     27  C   UNL     1       8.374  -3.375 -34.011  0.00  0.00    +0.020 A 
ATOM     28  C   UNL     1       7.523  -2.571 -34.745  0.00  0.00    +0.030 A 
ATOM     29  C   UNL     1       6.200  -2.436 -34.366  0.00  0.00    +0.020 A 
ENDBRANCH   5  24
TORSDOF 4
ENDMDL
MODEL 8
REMARK VINA RESULT:      -7.0     17.511     19.694
REMARK  Name = ZINC000006927490
REMARK  4 active torsions:
REMARK  status: ('A' for Active; 'I' for Inactive)
REMARK    1  A    between atoms: C5_5  and  C6_6
REMARK    2  A    between atoms: C5_5  and  C12_12
REMARK    3  A    between atoms: N15_15  and  C17_17
REMARK    4  A    between atoms: C17_17  and  C18_18
REMARK                            x       y       z     vdW  Elec       q    Type
REMARK                         _______ _______ _______ _____ _____    ______ ____
ROOT
ATOM      1  O   UNL     1       2.681  -3.647 -36.327  0.00  0.00    -0.480 OA
ATOM      2  C   UNL     1       3.020  -3.614 -35.163  0.00  0.00    +0.520 C 
ATOM      3  C   UNL     1       3.756  -4.788 -34.575  0.00  0.00    +0.080 C 
ATOM      4  C   UNL     1       3.446  -4.877 -33.077  0.00  0.00    +0.070 C 
ATOM      5  C   UNL     1       3.805  -3.538 -32.424  0.00  0.00    -0.020 C 
ATOM      6  C   UNL     1       3.066  -2.431 -33.130  0.00  0.00    +0.530 C 
ATOM      7  O   UNL     1       2.766  -1.431 -32.515  0.00  0.00    -0.480 OA
ATOM      8  N   UNL     1       2.736  -2.530 -34.426  0.00  0.00    -0.670 N 
ATOM      9  H   UNL     1       2.267  -1.791 -34.845  0.00  0.00    +0.420 HD
ENDROOT
BRANCH   5  10
ATOM     10  C   UNL     1       5.312  -3.300 -32.538  0.00  0.00    +0.010 C 
ATOM     11  C   UNL     1       6.021  -4.629 -32.817  0.00  0.00    +0.060 C 
ATOM     12  C   UNL     1       7.516  -4.373 -33.010  0.00  0.00    +0.270 C 
ATOM     13  N   UNL     1       7.719  -3.462 -34.142  0.00  0.00    -0.380 N 
ATOM     14  C   UNL     1       7.104  -2.162 -33.852  0.00  0.00    +0.260 C 
ATOM     15  H   UNL     1       7.296  -3.857 -34.969  0.00  0.00    +0.420 HD
ATOM     16  C   UNL     1       5.591  -2.333 -33.692  0.00  0.00    +0.070 C 
BRANCH  13  17
ATOM     17  C   UNL     1       9.159  -3.279 -34.370  0.00  0.00    +0.320 C 
BRANCH  17  18
ATOM     18  C   UNL     1       9.541  -3.900 -35.689  0.00  0.00    -0.160 A 
ATOM     19  C   UNL     1       8.622  -3.954 -36.720  0.00  0.00    +0.040 A 
ATOM     20  C   UNL     1       8.972  -4.525 -37.929  0.00  0.00    +0.030 A 
ATOM     21  C   UNL     1      10.241  -5.040 -38.108  0.00  0.00    +0.060 A 
ATOM     22  C   UNL     1      11.161  -4.985 -37.078  0.00  0.00    +0.030 A 
ATOM     23  C   UNL     1      10.813  -4.410 -35.870  0.00  0.00    +0.030 A 
ENDBRANCH  17  18
ENDBRANCH  13  17
ENDBRANCH   5  10
BRANCH   5  24
ATOM     24  C   UNL     1       3.407  -3.564 -30.971  0.00  0.00    -0.070 A 
ATOM     25  C   UNL     1       4.280  -3.096 -30.007  0.00  0.00    -0.020 A 
ATOM     26  C   UNL     1       3.915  -3.119 -28.674  0.00  0.00    +0.010 A 
ATOM     27  C   UNL     1       2.677  -3.609 -28.305  0.00  0.00    +0.020 A 
ATOM     28  C   UNL     1       1.802  -4.076 -29.269  0.00  0.00    +0.030 A 
ATOM     29  C   UNL     1       2.166  -4.049 -30.603  0.00  0.00    +0.020 A 
ENDBRANCH   5  24
TORSDOF 4
ENDMDL
MODEL 9
REMARK VINA RESULT:      -6.9     16.729     18.294
REMARK  Name = ZINC000006927490
REMARK  4 active torsions:
REMARK  status: ('A' for Active; 'I' for Inactive)
REMARK    1  A    between atoms: C5_5  and  C6_6
REMARK    2  A    between atoms: C5_5  and  C12_12
REMARK    3  A    between atoms: N15_15  and  C17_17
REMARK    4  A    between atoms: C17_17  and  C18_18
REMARK                            x       y       z     vdW  Elec       q    Type
REMARK                         _______ _______ _______ _____ _____    ______ ____
ROOT
ATOM      1  O   UNL     1       1.018  -2.634 -30.092  0.00  0.00    -0.480 OA
ATOM      2  C   UNL     1       1.876  -2.755 -30.941  0.00  0.00    +0.520 C 
ATOM      3  C   UNL     1       2.068  -4.091 -31.609  0.00  0.00    +0.080 C 
ATOM      4  C   UNL     1       3.534  -4.233 -32.035  0.00  0.00    +0.070 C 
ATOM      5  C   UNL     1       3.901  -3.041 -32.926  0.00  0.00    -0.020 C 
ATOM      6  C   UNL     1       3.607  -1.763 -32.186  0.00  0.00    +0.530 C 
ATOM      7  O   UNL     1       4.265  -0.773 -32.426  0.00  0.00    -0.480 OA
ATOM      8  N   UNL     1       2.631  -1.697 -31.269  0.00  0.00    -0.670 N 
ATOM      9  H   UNL     1       2.469  -0.852 -30.820  0.00  0.00    +0.420 HD
ENDROOT
BRANCH   5  10
ATOM     10  C   UNL     1       3.072  -3.089 -34.212  0.00  0.00    +0.010 C 
ATOM     11  C   UNL     1       2.576  -4.519 -34.449  0.00  0.00    +0.060 C 
ATOM     12  C   UNL     1       1.683  -4.544 -35.690  0.00  0.00    +0.270 C 
ATOM     13  N   UNL     1       0.535  -3.653 -35.490  0.00  0.00    -0.380 N 
ATOM     14  C   UNL     1       0.998  -2.269 -35.333  0.00  0.00    +0.260 C 
ATOM     15  H   UNL     1       0.033  -3.935 -34.660  0.00  0.00    +0.420 HD
ATOM     16  C   UNL     1       1.865  -2.157 -34.077  0.00  0.00    +0.070 C 
BRANCH  13  17
ATOM     17  C   UNL     1      -0.359  -3.738 -36.653  0.00  0.00    +0.320 C 
BRANCH  17  18
ATOM     18  C   UNL     1      -1.641  -4.422 -36.252  0.00  0.00    -0.160 A 
ATOM     19  C   UNL     1      -2.150  -4.245 -34.980  0.00  0.00    +0.040 A 
ATOM     20  C   UNL     1      -3.325  -4.873 -34.612  0.00  0.00    +0.030 A 
ATOM     21  C   UNL     1      -3.991  -5.677 -35.517  0.00  0.00    +0.060 A 
ATOM     22  C   UNL     1      -3.482  -5.854 -36.790  0.00  0.00    +0.030 A 
ATOM     23  C   UNL     1      -2.310  -5.222 -37.160  0.00  0.00    +0.030 A 
ENDBRANCH  17  18
ENDBRANCH  13  17
ENDBRANCH   5  10
BRANCH   5  24
ATOM     24  C   UNL     1       5.367  -3.101 -33.268  0.00  0.00    -0.070 A 
ATOM     25  C   UNL     1       5.824  -2.551 -34.452  0.00  0.00    -0.020 A 
ATOM     26  C   UNL     1       7.169  -2.605 -34.765  0.00  0.00    +0.010 A 
ATOM     27  C   UNL     1       8.057  -3.209 -33.896  0.00  0.00    +0.020 A 
ATOM     28  C   UNL     1       7.601  -3.758 -32.712  0.00  0.00    +0.030 A 
ATOM     29  C   UNL     1       6.256  -3.700 -32.396  0.00  0.00    +0.020 A 
ENDBRANCH   5  24
TORSDOF 4
ENDMDL
