@<TRIPOS>MOLECULE
ZINC000006927490
  54   57    0    0    0
SMALL
USER_CHARGES
NO_NAME
@<TRIPOS>ATOM
    1 O1       -3.2982     5.2077    -2.1380 O.2    1 <0>      -0.4800
    2 C2       -2.3301     4.8662    -1.4932 C.2    1 <0>       0.5200
    3 C3       -1.3221     5.9018    -1.0699 C.3    1 <0>      -0.1500
    4 C4        0.0566     5.2433    -0.9525 C.3    1 <0>      -0.1200
    5 C5       -0.0494     4.0580     0.0129 C.3    1 <0>      -0.0200
    6 C6        1.2679     3.3275     0.0601 C.ar   1 <0>      -0.0700
    7 C7        1.9407     3.1923     1.2601 C.ar   1 <0>      -0.1500
    8 C8        3.1490     2.5223     1.3033 C.ar   1 <0>      -0.1200
    9 C9        3.6843     1.9870     0.1467 C.ar   1 <0>      -0.1100
   10 C10       3.0111     2.1214    -1.0531 C.ar   1 <0>      -0.1000
   11 C11       1.8007     2.7877    -1.0956 C.ar   1 <0>      -0.1000
   12 C12      -0.4017     4.5678     1.4118 C.3    1 <0>      -0.0900
   13 C13      -0.5268     3.3818     2.3726 C.3    1 <0>      -0.1800
   14 C14      -0.8005     3.9033     3.7849 C.3    1 <0>       0.0000
   15 N15       0.3052     4.7679     4.2140 N.4    1 <0>      -0.3800
   16 H16       1.1718     4.2535     4.1645 H      1 <0>       0.4200
   17 C17       0.0750     5.2045     5.5976 C.3    1 <0>       0.0400
   18 C18       1.1436     6.1888     5.9982 C.ar   1 <0>      -0.1600
   19 C19       2.3168     5.7388     6.5743 C.ar   1 <0>      -0.0900
   20 C20       3.2970     6.6417     6.9417 C.ar   1 <0>      -0.1100
   21 C21       3.1041     7.9944     6.7326 C.ar   1 <0>      -0.0800
   22 C22       1.9312     8.4443     6.1557 C.ar   1 <0>      -0.1100
   23 C23       0.9528     7.5411     5.7844 C.ar   1 <0>      -0.1000
   24 C24       0.3857     5.9443     3.3399 C.3    1 <0>      -0.0100
   25 C25       0.7051     5.5014     1.9104 C.3    1 <0>      -0.1700
   26 C26      -1.1265     3.1226    -0.4693 C.2    1 <0>       0.5300
   27 O27      -1.0423     1.9395    -0.2187 O.2    1 <0>      -0.4800
   28 N28      -2.1803     3.5739    -1.1660 N.am   1 <0>      -0.6700
   29 H29      -1.2835     6.6978    -1.8135 H      1 <0>       0.1200
   30 H30      -1.6106     6.3176    -0.1045 H      1 <0>       0.1100
   31 H31       0.3781     4.8899    -1.9322 H      1 <0>       0.0900
   32 H32       0.7758     5.9661    -0.5671 H      1 <0>       0.1000
   33 H33       1.5225     3.6105     2.1637 H      1 <0>       0.1300
   34 H34       3.6750     2.4173     2.2407 H      1 <0>       0.1300
   35 H35       4.6287     1.4642     0.1804 H      1 <0>       0.1300
   36 H36       3.4295     1.7035    -1.9569 H      1 <0>       0.1300
   37 H37       1.2747     2.8927    -2.0330 H      1 <0>       0.1200
   38 H38      -1.3467     5.1098     1.3750 H      1 <0>       0.1000
   39 H39      -1.3498     2.7415     2.0552 H      1 <0>       0.1200
   40 H40       0.4017     2.8109     2.3690 H      1 <0>       0.1200
   41 H41      -1.7293     4.4738     3.7875 H      1 <0>       0.1300
   42 H42      -0.8904     3.0614     4.4715 H      1 <0>       0.1400
   43 H43      -0.9030     5.6802     5.6705 H      1 <0>       0.1400
   44 H44       0.1093     4.3407     6.2616 H      1 <0>       0.1400
   45 H45       2.4676     4.6819     6.7376 H      1 <0>       0.1300
   46 H46       4.2134     6.2902     7.3924 H      1 <0>       0.1400
   47 H47       3.8696     8.6999     7.0204 H      1 <0>       0.1400
   48 H48       1.7803     9.5012     5.9927 H      1 <0>       0.1400
   49 H49       0.0365     7.8926     5.3336 H      1 <0>       0.1300
   50 H50      -0.5683     6.4713     3.3519 H      1 <0>       0.1300
   51 H51       1.1716     6.6093     3.6978 H      1 <0>       0.1400
   52 H52       1.6591     4.9745     1.8972 H      1 <0>       0.1200
   53 H53       0.7626     6.3761     1.2626 H      1 <0>       0.1200
   54 H54      -2.8566     2.9397    -1.4511 H      1 <0>       0.4200
@<TRIPOS>BOND
   1    1    2 2
   2    2   28 am
   3    2    3 1
   4    3    4 1
   5    3   29 1
   6    3   30 1
   7    4    5 1
   8    4   31 1
   9    4   32 1
  10    5    6 1
  11    5   12 1
  12    5   26 1
  13    6   11 ar
  14    6    7 ar
  15    7    8 ar
  16    7   33 1
  17    8    9 ar
  18    8   34 1
  19    9   10 ar
  20    9   35 1
  21   10   11 ar
  22   10   36 1
  23   11   37 1
  24   12   25 1
  25   12   13 1
  26   12   38 1
  27   13   14 1
  28   13   39 1
  29   13   40 1
  30   14   15 1
  31   14   41 1
  32   14   42 1
  33   15   16 1
  34   15   17 1
  35   15   24 1
  36   17   18 1
  37   17   43 1
  38   17   44 1
  39   18   23 ar
  40   18   19 ar
  41   19   20 ar
  42   19   45 1
  43   20   21 ar
  44   20   46 1
  45   21   22 ar
  46   21   47 1
  47   22   23 ar
  48   22   48 1
  49   23   49 1
  50   24   25 1
  51   24   50 1
  52   24   51 1
  53   25   52 1
  54   25   53 1
  55   26   27 2
  56   26   28 am
  57   28   54 1
