@<TRIPOS>MOLECULE
ZINC000003995616
87    94    1     0     0
SMALL
USER_CHARGES
@<TRIPOS>ATOM
1      C1     -0.1297    1.7153   -0.3350 C.3      1 ZINC000003995616   -0.1400
2      C2     -0.1723    0.2046   -0.0968 C.3      1 ZINC000003995616   -0.0800
3      C3      0.6325   -0.1367    1.1588 C.3      1 ZINC000003995616   -0.1500
4      C4     -1.6238   -0.2414    0.0909 C.3      1 ZINC000003995616    0.3000
5      N5     -2.1958    0.3813    1.2872 N.am     1 ZINC000003995616   -0.7300
6      C6     -2.5632    1.6778    1.2619 C.2      1 ZINC000003995616    0.5200
7      O7     -2.5140    2.3019    0.2231 O.2      1 ZINC000003995616   -0.4600
8      C8     -3.0351    2.3520    2.5243 C.3      1 ZINC000003995616   -0.1300
9      H9     -3.8390    1.7671    2.9712 H        1 ZINC000003995616    0.1200
10     C10    -3.5468    3.7565    2.1939 C.3      1 ZINC000003995616   -0.1100
11     C11    -3.9532    4.4638    3.4906 C.3      1 ZINC000003995616   -0.0400
12     H12    -4.7767    3.9198    3.9532 H        1 ZINC000003995616    0.1000
13     C13    -4.3979    5.8609    3.1790 C.ar     1 ZINC000003995616   -0.0500
14     C14    -4.1779    6.8203    4.1699 C.ar     1 ZINC000003995616   -0.1300
15     C15    -3.5425    6.5789    5.4654 C.2      1 ZINC000003995616   -0.2000
16     C16    -3.5429    7.7496    6.0839 C.2      1 ZINC000003995616    0.0900
17     N17    -4.1257    8.7179    5.2799 N.pl3    1 ZINC000003995616   -0.5900
18     C18    -4.5198    8.1755    4.0942 C.ar     1 ZINC000003995616    0.1200
19     C19    -5.1306    8.6153    2.9211 C.ar     1 ZINC000003995616   -0.1100
20     C20    -5.3464    7.6645    1.9327 C.ar     1 ZINC000003995616   -0.1000
21     C21    -4.9941    6.3205    2.0475 C.ar     1 ZINC000003995616   -0.1100
22     C22    -3.0632    5.1861    5.7857 C.3      1 ZINC000003995616   -0.0500
23     C23    -2.7634    4.4882    4.4509 C.3      1 ZINC000003995616    0.0400
24     H24    -1.9319    5.0057    3.9725 H        1 ZINC000003995616    0.1400
25     N25    -2.3508    3.1050    4.7214 N.4      1 ZINC000003995616   -0.3800
26     H26    -3.1355    2.5870    5.0875 H        1 ZINC000003995616    0.4200
27     C27    -1.2632    3.1050    5.7089 C.3      1 ZINC000003995616   -0.0600
28     C28    -1.8712    2.4605    3.5123 C.3      1 ZINC000003995616   -0.0100
29     O29    -2.4049    0.0942   -1.0725 O.3      1 ZINC000003995616   -0.3100
30     C30    -3.3563   -0.9761   -1.1794 C.3      1 ZINC000003995616    0.4700
31     O31    -4.5509   -0.6244   -0.4784 O.3      1 ZINC000003995616   -0.5300
32     C32    -3.7022   -1.2425   -2.6307 C.3      1 ZINC000003995616    0.1500
33     H33    -2.8572   -0.9812   -3.2677 H        1 ZINC000003995616    0.1100
34     C34    -4.9502   -0.4355   -3.0534 C.3      1 ZINC000003995616   -0.1200
35     C35    -5.4824   -1.2422   -4.2624 C.3      1 ZINC000003995616   -0.1400
36     C36    -4.8851   -2.6533   -4.0953 C.3      1 ZINC000003995616    0.1000
37     N37    -4.0819   -2.6449   -2.8522 N.am     1 ZINC000003995616   -0.6100
38     C38    -3.8018   -3.7084   -2.0873 C.2      1 ZINC000003995616    0.5300
39     O39    -4.0710   -4.8198   -2.4913 O.2      1 ZINC000003995616   -0.5100
40     C40    -3.1585   -3.5492   -0.7358 C.3      1 ZINC000003995616    0.1700
41     H41    -2.3016   -4.2186   -0.6598 H        1 ZINC000003995616    0.1400
42     C42    -4.1734   -3.8933    0.3562 C.3      1 ZINC000003995616   -0.0900
43     C43    -3.4909   -3.8762    1.6997 C.ar     1 ZINC000003995616   -0.0800
44     C44    -2.7974   -4.9892    2.1369 C.ar     1 ZINC000003995616   -0.1000
45     C45    -2.1713   -4.9735    3.3692 C.ar     1 ZINC000003995616   -0.1000
46     C46    -2.2384   -3.8446    4.1642 C.ar     1 ZINC000003995616   -0.1100
47     C47    -2.9312   -2.7313    3.7267 C.ar     1 ZINC000003995616   -0.1200
48     C48    -3.5537   -2.7455    2.4925 C.ar     1 ZINC000003995616   -0.1200
49     N49    -2.7514   -2.1535   -0.5545 N.am     1 ZINC000003995616   -0.6300
50     C50    -1.7010   -1.7496    0.1953 C.2      1 ZINC000003995616    0.5000
51     O51    -0.9430   -2.4659    0.8142 O.2      1 ZINC000003995616   -0.4500
52     H52     0.8899    2.0167   -0.5749 H        1 ZINC000003995616    0.0600
53     H53    -0.7889    1.9711   -1.1645 H        1 ZINC000003995616    0.0800
54     H54    -0.4599    2.2344    0.5649 H        1 ZINC000003995616    0.0500
55     H55     0.2580   -0.3109   -0.9554 H        1 ZINC000003995616    0.0900
56     H56     0.1316    0.2758    2.0347 H        1 ZINC000003995616    0.0500
57     H57     0.7073   -1.2195    1.2593 H        1 ZINC000003995616    0.0800
58     H58     1.6320    0.2905    1.0770 H        1 ZINC000003995616    0.0700
59     H59    -2.3101   -0.1394    2.0976 H        1 ZINC000003995616    0.4100
60     H60    -2.7580    4.3248    1.7011 H        1 ZINC000003995616    0.1000
61     H61    -4.4106    3.6832    1.5331 H        1 ZINC000003995616    0.1100
62     H62    -3.1467    7.9253    7.0731 H        1 ZINC000003995616    0.1700
63     H63    -4.2368    9.6493    5.5269 H        1 ZINC000003995616    0.4200
64     H64    -5.4225    9.6465    2.7875 H        1 ZINC000003995616    0.1400
65     H65    -5.8176    7.9868    1.0158 H        1 ZINC000003995616    0.1300
66     H66    -5.1961    5.6408    1.2328 H        1 ZINC000003995616    0.1300
67     H67    -2.1544    5.2379    6.3853 H        1 ZINC000003995616    0.1000
68     H68    -3.8364    4.6471    6.3332 H        1 ZINC000003995616    0.1000
69     H69    -1.6108    3.5685    6.6322 H        1 ZINC000003995616    0.1300
70     H70    -0.9558    2.0790    5.9108 H        1 ZINC000003995616    0.1300
71     H71    -0.4161    3.6676    5.3165 H        1 ZINC000003995616    0.1300
72     H72    -1.5170    1.4577    3.7511 H        1 ZINC000003995616    0.1400
73     H73    -1.0530    3.0438    3.0897 H        1 ZINC000003995616    0.1400
74     H74    -4.4164   -0.4437    0.4620 H        1 ZINC000003995616    0.3700
75     H75    -5.6863   -0.4126   -2.2498 H        1 ZINC000003995616    0.1000
76     H76    -4.6735    0.5749   -3.3545 H        1 ZINC000003995616    0.0900
77     H77    -6.5712   -1.2866   -4.2383 H        1 ZINC000003995616    0.0900
78     H78    -5.1414   -0.7947   -5.1959 H        1 ZINC000003995616    0.0900
79     H79    -5.6852   -3.3899   -4.0226 H        1 ZINC000003995616    0.0900
80     H80    -4.2395   -2.8868   -4.9419 H        1 ZINC000003995616    0.0800
81     H81    -4.9786   -3.1587    0.3484 H        1 ZINC000003995616    0.0900
82     H82    -4.5848   -4.8854    0.1704 H        1 ZINC000003995616    0.1000
83     H83    -2.7449   -5.8711    1.5158 H        1 ZINC000003995616    0.1300
84     H84    -1.6300   -5.8433    3.7111 H        1 ZINC000003995616    0.1300
85     H85    -1.7499   -3.8326    5.1274 H        1 ZINC000003995616    0.1200
86     H86    -2.9840   -1.8494    4.3480 H        1 ZINC000003995616    0.1100
87     H87    -4.0949   -1.8756    2.1506 H        1 ZINC000003995616    0.1000
@<TRIPOS>BOND
1     1     2     1
2     1     52    1
3     1     53    1
4     1     54    1
5     2     3     1
6     2     4     1
7     2     55    1
8     3     56    1
9     3     57    1
10    3     58    1
11    4     50    1
12    4     5     1
13    4     29    1
14    5     6     am
15    5     59    1
16    6     7     2
17    6     8     1
18    8     9     1
19    8     28    1
20    8     10    1
21    10    11    1
22    10    60    1
23    10    61    1
24    11    12    1
25    11    23    1
26    11    13    1
27    13    21    ar
28    13    14    ar
29    14    18    ar
30    14    15    1
31    15    16    2
32    15    22    1
33    16    17    1
34    16    62    1
35    17    18    1
36    17    63    1
37    18    19    ar
38    19    20    ar
39    19    64    1
40    20    21    ar
41    20    65    1
42    21    66    1
43    22    23    1
44    22    67    1
45    22    68    1
46    23    24    1
47    23    25    1
48    25    26    1
49    25    27    1
50    25    28    1
51    27    69    1
52    27    70    1
53    27    71    1
54    28    72    1
55    28    73    1
56    29    30    1
57    30    49    1
58    30    31    1
59    30    32    1
60    31    74    1
61    32    33    1
62    32    37    1
63    32    34    1
64    34    35    1
65    34    75    1
66    34    76    1
67    35    36    1
68    35    77    1
69    35    78    1
70    36    37    1
71    36    79    1
72    36    80    1
73    37    38    am
74    38    39    2
75    38    40    1
76    40    41    1
77    40    42    1
78    40    49    1
79    42    43    1
80    42    81    1
81    42    82    1
82    43    48    ar
83    43    44    ar
84    44    45    ar
85    44    83    1
86    45    46    ar
87    45    84    1
88    46    47    ar
89    46    85    1
90    47    48    ar
91    47    86    1
92    48    87    1
93    49    50    am
94    50    51    2
@<TRIPOS>SUBSTRUCTURE
1   ZINC000003995616 1     RESIDUE    1   A     ZIN   1
