@<TRIPOS>MOLECULE
ZINC000003929793
86    92    1     0     0
SMALL
USER_CHARGES
@<TRIPOS>ATOM
1      C1     -1.5958    0.9013    0.1243 C.3      1 ZINC000003929793   -0.1500
2      C2     -1.1882   -0.5707    0.0368 C.3      1 ZINC000003929793   -0.0800
3      C3     -0.4456   -0.9711    1.3132 C.3      1 ZINC000003929793   -0.1500
4      C4     -2.4390   -1.4380   -0.1189 C.3      1 ZINC000003929793   -0.1200
5      C5     -2.0257   -2.8957   -0.3313 C.3      1 ZINC000003929793    0.1600
6      H6     -1.3764   -3.2124    0.4849 H        1 ZINC000003929793    0.1300
7      C7     -3.2533   -3.7664   -0.3636 C.2      1 ZINC000003929793    0.5300
8      O8     -3.8773   -3.9549    0.6592 O.2      1 ZINC000003929793   -0.5100
9      N9     -3.6682   -4.3371   -1.5026 N.am     1 ZINC000003929793   -0.6100
10     C10    -4.9620   -5.0152   -1.7072 C.3      1 ZINC000003929793    0.1000
11     C11    -5.2959   -4.9030   -3.2075 C.3      1 ZINC000003929793   -0.1400
12     C12    -4.0957   -4.1507   -3.8307 C.3      1 ZINC000003929793   -0.1200
13     C13    -2.9725   -4.3861   -2.7956 C.3      1 ZINC000003929793    0.1500
14     H14    -2.5314   -5.3719   -2.9432 H        1 ZINC000003929793    0.1100
15     C15    -1.9033   -3.3186   -2.9162 C.3      1 ZINC000003929793    0.4600
16     O16    -2.4778   -2.1270   -3.4568 O.3      1 ZINC000003929793   -0.5300
17     O17    -0.8464   -3.7548   -3.7851 O.3      1 ZINC000003929793   -0.3100
18     C18     0.3333   -3.1217   -3.2523 C.3      1 ZINC000003929793    0.3100
19     N19     0.5594   -1.8320   -3.9094 N.am     1 ZINC000003929793   -0.7300
20     C20     0.4750   -1.7353   -5.2510 C.2      1 ZINC000003929793    0.5200
21     O21     0.1144   -2.6900   -5.9063 O.2      1 ZINC000003929793   -0.4600
22     C22     0.8289   -0.4409   -5.9369 C.3      1 ZINC000003929793   -0.1300
23     H23     0.1764    0.3536   -5.5747 H        1 ZINC000003929793    0.1200
24     C24     0.6526   -0.5984   -7.4494 C.3      1 ZINC000003929793   -0.1100
25     C25     1.0868    0.6954   -8.1456 C.3      1 ZINC000003929793   -0.0400
26     H26     0.4365    1.5100   -7.8270 H        1 ZINC000003929793    0.1100
27     C27     0.9737    0.5254   -9.6305 C.ar     1 ZINC000003929793   -0.0500
28     C28     1.8764    1.2510  -10.4112 C.ar     1 ZINC000003929793   -0.1300
29     C29     2.9208    2.1406   -9.9034 C.2      1 ZINC000003929793   -0.2000
30     C30     3.5321    2.6182  -10.9764 C.2      1 ZINC000003929793    0.0900
31     N31     2.9598    2.0973  -12.1273 N.pl3    1 ZINC000003929793   -0.5900
32     C32     1.9431    1.2486  -11.8093 C.ar     1 ZINC000003929793    0.1100
33     C33     1.0309    0.4446  -12.4907 C.ar     1 ZINC000003929793   -0.1100
34     C34     0.1354   -0.2812  -11.7168 C.ar     1 ZINC000003929793   -0.1000
35     C35     0.0981   -0.2493  -10.3235 C.ar     1 ZINC000003929793   -0.1100
36     C36     3.0684    2.3027   -8.4119 C.3      1 ZINC000003929793   -0.0500
37     C37     2.5296    1.0218   -7.7580 C.3      1 ZINC000003929793    0.0400
38     H38     3.1721    0.1912   -8.0502 H        1 ZINC000003929793    0.1400
39     N39     2.6013    1.1685   -6.2986 N.4      1 ZINC000003929793   -0.3800
40     H40     1.9486    1.8780   -6.0009 H        1 ZINC000003929793    0.4200
41     C41     3.9623    1.5664   -5.9149 C.3      1 ZINC000003929793   -0.0600
42     C42     2.2862   -0.0836   -5.6350 C.3      1 ZINC000003929793   -0.0100
43     C43     1.5513   -4.0299   -3.4330 C.3      1 ZINC000003929793   -0.0800
44     C44     1.6847   -4.4168   -4.9072 C.3      1 ZINC000003929793   -0.1400
45     C45     2.8118   -3.2877   -2.9844 C.3      1 ZINC000003929793   -0.1500
46     C46     0.0404   -2.9180   -1.7812 C.2      1 ZINC000003929793    0.5000
47     O47     0.8558   -2.7008   -0.9101 O.2      1 ZINC000003929793   -0.4500
48     N48    -1.3090   -3.0204   -1.6029 N.am     1 ZINC000003929793   -0.6400
49     H49    -0.7047    1.5192    0.2352 H        1 ZINC000003929793    0.0600
50     H50    -2.1249    1.1866   -0.7850 H        1 ZINC000003929793    0.0500
51     H51    -2.2484    1.0470    0.9852 H        1 ZINC000003929793    0.0600
52     H52    -0.5356   -0.7164   -0.8241 H        1 ZINC000003929793    0.0600
53     H53    -0.1552   -2.0198    1.2508 H        1 ZINC000003929793    0.0600
54     H54     0.4455   -0.3532    1.4241 H        1 ZINC000003929793    0.0600
55     H55    -1.0982   -0.8254    2.1740 H        1 ZINC000003929793    0.0600
56     H56    -3.0490   -1.3607    0.7812 H        1 ZINC000003929793    0.1000
57     H57    -3.0146   -1.0945   -0.9785 H        1 ZINC000003929793    0.0800
58     H58    -4.8818   -6.0639   -1.4212 H        1 ZINC000003929793    0.0800
59     H59    -5.7361   -4.5260   -1.1160 H        1 ZINC000003929793    0.0900
60     H60    -5.3919   -5.8948   -3.6493 H        1 ZINC000003929793    0.0900
61     H61    -6.2146   -4.3339   -3.3495 H        1 ZINC000003929793    0.0900
62     H62    -3.8285   -4.5814   -4.7957 H        1 ZINC000003929793    0.0900
63     H63    -4.3146   -3.0873   -3.9282 H        1 ZINC000003929793    0.1000
64     H64    -1.8491   -1.3998   -3.5618 H        1 ZINC000003929793    0.3700
65     H65     0.7698   -1.0477   -3.3788 H        1 ZINC000003929793    0.4100
66     H66     1.2672   -1.4261   -7.8033 H        1 ZINC000003929793    0.1000
67     H67    -0.3947   -0.7993   -7.6749 H        1 ZINC000003929793    0.1100
68     H68     4.3578    3.3141  -10.9580 H        1 ZINC000003929793    0.1700
69     H69     3.2434    2.3077  -13.0308 H        1 ZINC000003929793    0.4200
70     H70     1.0211    0.3890  -13.5692 H        1 ZINC000003929793    0.1400
71     H71    -0.5784   -0.9110  -12.2270 H        1 ZINC000003929793    0.1300
72     H72    -0.6305   -0.8434   -9.7920 H        1 ZINC000003929793    0.1300
73     H73     4.1206    2.4303   -8.1575 H        1 ZINC000003929793    0.1000
74     H74     2.4998    3.1704   -8.0775 H        1 ZINC000003929793    0.1000
75     H75     4.2105    2.5160   -6.3889 H        1 ZINC000003929793    0.1300
76     H76     4.0172    1.6756   -4.8318 H        1 ZINC000003929793    0.1300
77     H77     4.6692    0.8027   -6.2393 H        1 ZINC000003929793    0.1300
78     H78     2.4038    0.0363   -4.5580 H        1 ZINC000003929793    0.1400
79     H79     2.9610   -0.8627   -5.9896 H        1 ZINC000003929793    0.1400
80     H80     1.4260   -4.9299   -2.8310 H        1 ZINC000003929793    0.0900
81     H81     1.9233   -3.5306   -5.4953 H        1 ZINC000003929793    0.0500
82     H82     2.4812   -5.1524   -5.0191 H        1 ZINC000003929793    0.0600
83     H83     0.7446   -4.8431   -5.2575 H        1 ZINC000003929793    0.0800
84     H84     2.8768   -2.3333   -3.5069 H        1 ZINC000003929793    0.0500
85     H85     2.7665   -3.1113   -1.9097 H        1 ZINC000003929793    0.0800
86     H86     3.6901   -3.8899   -3.2171 H        1 ZINC000003929793    0.0700
@<TRIPOS>BOND
1     1     2     1
2     1     49    1
3     1     50    1
4     1     51    1
5     2     3     1
6     2     4     1
7     2     52    1
8     3     53    1
9     3     54    1
10    3     55    1
11    4     5     1
12    4     56    1
13    4     57    1
14    5     6     1
15    5     48    1
16    5     7     1
17    7     8     2
18    7     9     am
19    9     13    1
20    9     10    1
21    10    11    1
22    10    58    1
23    10    59    1
24    11    12    1
25    11    60    1
26    11    61    1
27    12    13    1
28    12    62    1
29    12    63    1
30    13    14    1
31    13    15    1
32    15    48    1
33    15    16    1
34    15    17    1
35    16    64    1
36    17    18    1
37    18    19    1
38    18    43    1
39    18    46    1
40    19    20    am
41    19    65    1
42    20    21    2
43    20    22    1
44    22    23    1
45    22    42    1
46    22    24    1
47    24    25    1
48    24    66    1
49    24    67    1
50    25    26    1
51    25    37    1
52    25    27    1
53    27    35    ar
54    27    28    ar
55    28    32    ar
56    28    29    1
57    29    30    2
58    29    36    1
59    30    31    1
60    30    68    1
61    31    32    1
62    31    69    1
63    32    33    ar
64    33    34    ar
65    33    70    1
66    34    35    ar
67    34    71    1
68    35    72    1
69    36    37    1
70    36    73    1
71    36    74    1
72    37    38    1
73    37    39    1
74    39    40    1
75    39    41    1
76    39    42    1
77    41    75    1
78    41    76    1
79    41    77    1
80    42    78    1
81    42    79    1
82    43    44    1
83    43    45    1
84    43    80    1
85    44    81    1
86    44    82    1
87    44    83    1
88    45    84    1
89    45    85    1
90    45    86    1
91    46    47    2
92    46    48    am
@<TRIPOS>SUBSTRUCTURE
1   ZINC000003929793 1     RESIDUE    1   A     ZIN   1
