REMARK  Name = ZINC000003929793
REMARK  11 active torsions:
REMARK  status: ('A' for Active; 'I' for Inactive)
REMARK    1  A    between atoms: C1_1  and  C2_2
REMARK    2  A    between atoms: C2_2  and  C3_3
REMARK    3  A    between atoms: C2_2  and  C4_4
REMARK    4  A    between atoms: C4_4  and  C5_5
REMARK    5  A    between atoms: C15_15  and  O16_16
REMARK    6  A    between atoms: C18_18  and  N19_19
REMARK    7  A    between atoms: C18_18  and  C43_43
REMARK    8  A    between atoms: C20_20  and  C22_22
REMARK    9  A    between atoms: N39_39  and  C41_41
REMARK   10  A    between atoms: C43_43  and  C44_44
REMARK   11  A    between atoms: C43_43  and  C45_45
REMARK                            x       y       z     vdW  Elec       q    Type
REMARK                         _______ _______ _______ _____ _____    ______ ____
ROOT
ATOM      1  C   UNL     1      -2.026  -2.896  -0.331  0.00  0.00    +0.290 C 
ATOM      2  C   UNL     1      -3.253  -3.766  -0.364  0.00  0.00    +0.530 C 
ATOM      3  N   UNL     1      -3.668  -4.337  -1.503  0.00  0.00    -0.610 N 
ATOM      4  C   UNL     1      -4.962  -5.015  -1.707  0.00  0.00    +0.270 C 
ATOM      5  C   UNL     1      -5.296  -4.903  -3.208  0.00  0.00    +0.040 C 
ATOM      6  C   UNL     1      -4.096  -4.151  -3.831  0.00  0.00    +0.070 C 
ATOM      7  C   UNL     1      -2.973  -4.386  -2.796  0.00  0.00    +0.260 C 
ATOM      8  C   UNL     1      -1.903  -3.319  -2.916  0.00  0.00    +0.460 C 
ATOM      9  O   UNL     1      -0.846  -3.755  -3.785  0.00  0.00    -0.310 OA
ATOM     10  C   UNL     1       0.333  -3.122  -3.252  0.00  0.00    +0.310 C 
ATOM     11  C   UNL     1       0.040  -2.918  -1.781  0.00  0.00    +0.500 C 
ATOM     12  O   UNL     1       0.856  -2.701  -0.910  0.00  0.00    -0.450 OA
ATOM     13  O   UNL     1      -3.877  -3.955   0.659  0.00  0.00    -0.510 OA
ATOM     14  N   UNL     1      -1.309  -3.020  -1.603  0.00  0.00    -0.640 N 
ENDROOT
BRANCH  10  15
ATOM     15  N   UNL     1       0.559  -1.832  -3.909  0.00  0.00    -0.730 N 
ATOM     16  H   UNL     1       0.770  -1.048  -3.379  0.00  0.00    +0.410 HD
ATOM     17  C   UNL     1       0.475  -1.735  -5.251  0.00  0.00    +0.520 C 
ATOM     18  O   UNL     1       0.114  -2.690  -5.906  0.00  0.00    -0.460 OA
BRANCH  17  19
ATOM     19  C   UNL     1       0.829  -0.441  -5.937  0.00  0.00    -0.010 C 
ATOM     20  C   UNL     1       0.653  -0.598  -7.449  0.00  0.00    +0.100 C 
ATOM     21  C   UNL     1       1.087   0.695  -8.146  0.00  0.00    +0.070 C 
ATOM     22  C   UNL     1       0.974   0.525  -9.630  0.00  0.00    -0.050 A 
ATOM     23  C   UNL     1       1.876   1.251 -10.411  0.00  0.00    -0.130 A 
ATOM     24  C   UNL     1       2.921   2.141  -9.903  0.00  0.00    -0.200 A 
ATOM     25  C   UNL     1       3.068   2.303  -8.412  0.00  0.00    +0.150 C 
ATOM     26  C   UNL     1       3.532   2.618 -10.976  0.00  0.00    +0.260 A 
ATOM     27  N   UNL     1       2.960   2.097 -12.127  0.00  0.00    -0.590 N 
ATOM     28  H   UNL     1       3.243   2.308 -13.031  0.00  0.00    +0.420 HD
ATOM     29  C   UNL     1       1.943   1.249 -11.809  0.00  0.00    +0.110 A 
ATOM     30  C   UNL     1       1.031   0.445 -12.491  0.00  0.00    +0.030 A 
ATOM     31  C   UNL     1       0.135  -0.281 -11.717  0.00  0.00    +0.030 A 
ATOM     32  C   UNL     1       0.098  -0.249 -10.323  0.00  0.00    +0.020 A 
ATOM     33  C   UNL     1       2.530   1.022  -7.758  0.00  0.00    +0.180 C 
ATOM     34  N   UNL     1       2.601   1.169  -6.299  0.00  0.00    -0.380 N 
ATOM     35  C   UNL     1       3.962   1.566  -5.915  0.00  0.00    +0.330 C 
ATOM     36  H   UNL     1       1.949   1.878  -6.001  0.00  0.00    +0.420 HD
ATOM     37  C   UNL     1       2.286  -0.084  -5.635  0.00  0.00    +0.270 C 
ENDBRANCH  17  19
ENDBRANCH  10  15
BRANCH  10  38
ATOM     38  C   UNL     1       1.551  -4.030  -3.433  0.00  0.00    +0.010 C 
ATOM     39  C   UNL     1       2.812  -3.288  -2.984  0.00  0.00    +0.050 C 
ATOM     40  C   UNL     1       1.685  -4.417  -4.907  0.00  0.00    +0.050 C 
ENDBRANCH  10  38
BRANCH   8  41
ATOM     41  O   UNL     1      -2.478  -2.127  -3.457  0.00  0.00    -0.530 OA
ATOM     42  H   UNL     1      -1.849  -1.400  -3.562  0.00  0.00    +0.370 HD
ENDBRANCH   8  41
BRANCH   1  43
ATOM     43  C   UNL     1      -2.439  -1.438  -0.119  0.00  0.00    +0.060 C 
BRANCH  43  45
ATOM     44  C   UNL     1      -1.596   0.901   0.124  0.00  0.00    +0.020 C 
ATOM     45  C   UNL     1      -1.188  -0.571   0.037  0.00  0.00    -0.020 C 
ATOM     46  C   UNL     1      -0.446  -0.971   1.313  0.00  0.00    +0.030 C 
ENDBRANCH  43  45
ENDBRANCH   1  43
TORSDOF 6
