REMARK  Name = ZINC000003995616
REMARK  9 active torsions:
REMARK  status: ('A' for Active; 'I' for Inactive)
REMARK    1  A    between atoms: C1_1  and  C2_2
REMARK    2  A    between atoms: C2_2  and  C3_3
REMARK    3  A    between atoms: C2_2  and  C4_4
REMARK    4  A    between atoms: C4_4  and  N5_5
REMARK    5  A    between atoms: C6_6  and  C8_8
REMARK    6  A    between atoms: N25_25  and  C27_27
REMARK    7  A    between atoms: C30_30  and  O31_31
REMARK    8  A    between atoms: C40_40  and  C42_42
REMARK    9  A    between atoms: C42_42  and  C43_43
REMARK                            x       y       z     vdW  Elec       q    Type
REMARK                         _______ _______ _______ _____ _____    ______ ____
ROOT
ATOM      1  C   UNL     1      -1.624  -0.241   0.091  0.00  0.00    +0.300 C 
ATOM      2  O   UNL     1      -2.405   0.094  -1.073  0.00  0.00    -0.310 OA
ATOM      3  C   UNL     1      -3.356  -0.976  -1.179  0.00  0.00    +0.470 C 
ATOM      4  C   UNL     1      -3.702  -1.242  -2.631  0.00  0.00    +0.260 C 
ATOM      5  C   UNL     1      -4.950  -0.435  -3.053  0.00  0.00    +0.070 C 
ATOM      6  C   UNL     1      -5.482  -1.242  -4.262  0.00  0.00    +0.040 C 
ATOM      7  C   UNL     1      -4.885  -2.653  -4.095  0.00  0.00    +0.270 C 
ATOM      8  N   UNL     1      -4.082  -2.645  -2.852  0.00  0.00    -0.610 N 
ATOM      9  C   UNL     1      -3.802  -3.708  -2.087  0.00  0.00    +0.530 C 
ATOM     10  C   UNL     1      -3.159  -3.549  -0.736  0.00  0.00    +0.310 C 
ATOM     11  O   UNL     1      -4.071  -4.820  -2.491  0.00  0.00    -0.510 OA
ATOM     12  N   UNL     1      -2.751  -2.154  -0.554  0.00  0.00    -0.630 N 
ATOM     13  C   UNL     1      -1.701  -1.750   0.195  0.00  0.00    +0.500 C 
ATOM     14  O   UNL     1      -0.943  -2.466   0.814  0.00  0.00    -0.450 OA
ENDROOT
BRANCH   1  15
ATOM     15  N   UNL     1      -2.196   0.381   1.287  0.00  0.00    -0.730 N 
ATOM     16  H   UNL     1      -2.310  -0.139   2.098  0.00  0.00    +0.410 HD
ATOM     17  C   UNL     1      -2.563   1.678   1.262  0.00  0.00    +0.520 C 
ATOM     18  O   UNL     1      -2.514   2.302   0.223  0.00  0.00    -0.460 OA
BRANCH  17  19
ATOM     19  C   UNL     1      -3.035   2.352   2.524  0.00  0.00    -0.010 C 
ATOM     20  C   UNL     1      -3.547   3.756   2.194  0.00  0.00    +0.100 C 
ATOM     21  C   UNL     1      -3.953   4.464   3.491  0.00  0.00    +0.060 C 
ATOM     22  C   UNL     1      -4.398   5.861   3.179  0.00  0.00    -0.050 A 
ATOM     23  C   UNL     1      -4.178   6.820   4.170  0.00  0.00    -0.130 A 
ATOM     24  C   UNL     1      -3.542   6.579   5.465  0.00  0.00    -0.200 A 
ATOM     25  C   UNL     1      -3.063   5.186   5.786  0.00  0.00    +0.150 C 
ATOM     26  C   UNL     1      -3.543   7.750   6.084  0.00  0.00    +0.260 A 
ATOM     27  N   UNL     1      -4.126   8.718   5.280  0.00  0.00    -0.590 N 
ATOM     28  H   UNL     1      -4.237   9.649   5.527  0.00  0.00    +0.420 HD
ATOM     29  C   UNL     1      -4.520   8.175   4.094  0.00  0.00    +0.120 A 
ATOM     30  C   UNL     1      -5.131   8.615   2.921  0.00  0.00    +0.030 A 
ATOM     31  C   UNL     1      -5.346   7.665   1.933  0.00  0.00    +0.030 A 
ATOM     32  C   UNL     1      -4.994   6.321   2.047  0.00  0.00    +0.020 A 
ATOM     33  C   UNL     1      -2.763   4.488   4.451  0.00  0.00    +0.180 C 
ATOM     34  N   UNL     1      -2.351   3.105   4.721  0.00  0.00    -0.380 N 
ATOM     35  C   UNL     1      -1.263   3.105   5.709  0.00  0.00    +0.330 C 
ATOM     36  H   UNL     1      -3.135   2.587   5.088  0.00  0.00    +0.420 HD
ATOM     37  C   UNL     1      -1.871   2.461   3.512  0.00  0.00    +0.270 C 
ENDBRANCH  17  19
ENDBRANCH   1  15
BRANCH   1  39
ATOM     38  C   UNL     1      -0.130   1.715  -0.335  0.00  0.00    +0.050 C 
ATOM     39  C   UNL     1      -0.172   0.205  -0.097  0.00  0.00    +0.010 C 
ATOM     40  C   UNL     1       0.632  -0.137   1.159  0.00  0.00    +0.050 C 
ENDBRANCH   1  39
BRANCH   3  41
ATOM     41  O   UNL     1      -4.551  -0.624  -0.478  0.00  0.00    -0.530 OA
ATOM     42  H   UNL     1      -4.416  -0.444   0.462  0.00  0.00    +0.370 HD
ENDBRANCH   3  41
BRANCH  10  43
ATOM     43  C   UNL     1      -4.173  -3.893   0.356  0.00  0.00    +0.100 C 
BRANCH  43  44
ATOM     44  C   UNL     1      -3.491  -3.876   1.700  0.00  0.00    -0.080 A 
ATOM     45  C   UNL     1      -2.797  -4.989   2.137  0.00  0.00    +0.030 A 
ATOM     46  C   UNL     1      -2.171  -4.973   3.369  0.00  0.00    +0.030 A 
ATOM     47  C   UNL     1      -2.238  -3.845   4.164  0.00  0.00    +0.010 A 
ATOM     48  C   UNL     1      -2.931  -2.731   3.727  0.00  0.00    -0.010 A 
ATOM     49  C   UNL     1      -3.554  -2.745   2.493  0.00  0.00    -0.020 A 
ENDBRANCH  43  44
ENDBRANCH  10  43
TORSDOF 6
