@<TRIPOS>MOLECULE
ZINC000038139973
83    87    1     0     0
SMALL
USER_CHARGES
@<TRIPOS>ATOM
1      C1     -0.1953    2.3148   -0.1718 C.3      1 ZINC000038139973   -0.1100
2      C2      0.0715    0.8448   -0.3694 C.2      1 ZINC000038139973    0.2400
3      C3     -0.9604   -0.0161   -0.4587 C.2      1 ZINC000038139973   -0.2600
4      C4     -2.2809    0.4733   -0.3556 C.2      1 ZINC000038139973    0.5300
5      O5     -2.4770    1.6581   -0.1573 O.2      1 ZINC000038139973   -0.5100
6      O6     -3.3256   -0.3726   -0.4770 O.3      1 ZINC000038139973   -0.3400
7      C7     -4.6337    0.2005   -0.4268 C.3      1 ZINC000038139973    0.0400
8      C8     -5.1114    0.2545    1.0257 C.3      1 ZINC000038139973    0.1000
9      N9     -4.2622    1.1756    1.7851 N.pl3    1 ZINC000038139973   -0.6100
10     C10    -4.5472    2.6125    1.7742 C.3      1 ZINC000038139973    0.1800
11     C11    -5.4868    2.9469    2.9040 C.ar     1 ZINC000038139973   -0.1100
12     C12    -6.8536    2.9036    2.7020 C.ar     1 ZINC000038139973   -0.1100
13     C13    -7.7155    3.2103    3.7383 C.ar     1 ZINC000038139973   -0.1200
14     C14    -7.2106    3.5599    4.9767 C.ar     1 ZINC000038139973   -0.1200
15     C15    -5.8438    3.6023    5.1790 C.ar     1 ZINC000038139973   -0.1200
16     C16    -4.9819    3.2914    4.1438 C.ar     1 ZINC000038139973   -0.1000
17     C17    -3.1807    0.6837    2.5196 C.ar     1 ZINC000038139973    0.2300
18     C18    -2.3578    1.5585    3.2175 C.ar     1 ZINC000038139973   -0.1900
19     C19    -1.2896    1.0688    3.9431 C.ar     1 ZINC000038139973   -0.0800
20     C20    -1.0386   -0.2908    3.9750 C.ar     1 ZINC000038139973   -0.1800
21     C21    -1.8559   -1.1644    3.2814 C.ar     1 ZINC000038139973   -0.0700
22     C22    -2.9292   -0.6819    2.5584 C.ar     1 ZINC000038139973   -0.2000
23     C23    -0.7345   -1.4868   -0.6662 C.3      1 ZINC000038139973    0.1000
24     H24    -1.3995   -2.0476   -0.0095 H        1 ZINC000038139973    0.0900
25     C25    -1.0416   -1.8379   -2.0992 C.ar     1 ZINC000038139973   -0.0800
26     C26    -0.2675   -1.3177   -3.1192 C.ar     1 ZINC000038139973   -0.0500
27     C27    -0.5492   -1.6399   -4.4339 C.ar     1 ZINC000038139973   -0.1200
28     C28    -1.6046   -2.4824   -4.7281 C.ar     1 ZINC000038139973   -0.0600
29     C29    -2.3784   -3.0034   -3.7076 C.ar     1 ZINC000038139973   -0.0400
30     N30    -3.5091   -3.9052   -4.0227 N.pl3    1 ZINC000038139973    0.0300
31     O31    -3.7578   -4.1883   -5.1809 O.2      1 ZINC000038139973   -0.1600
32     O32    -4.1908   -4.3642   -3.1237 O.2      1 ZINC000038139973   -0.1600
33     C33    -2.0941   -2.6848   -2.3931 C.ar     1 ZINC000038139973   -0.0300
34     C34     0.6883   -1.8581   -0.3619 C.2      1 ZINC000038139973   -0.8200
35     P35     1.1091   -3.6042   -0.1073 P.3      1 ZINC000038139973    2.4300
36     O36     2.2320   -3.9922   -0.9898 O.2      1 ZINC000038139973   -1.0100
37     O37     1.4980   -3.8663    1.4486 O.3      1 ZINC000038139973   -0.7300
38     C38     1.3945   -5.2010    1.9783 C.3      1 ZINC000038139973    0.1000
39     C39    -0.0047   -5.7453    1.6880 C.3      1 ZINC000038139973   -0.1700
40     C40    -0.1489   -7.1291    2.3245 C.3      1 ZINC000038139973   -0.1400
41     C41    -1.0474   -4.8022    2.2917 C.3      1 ZINC000038139973   -0.1400
42     C42    -0.2408   -5.8571    0.1813 C.3      1 ZINC000038139973    0.1000
43     O43    -0.1853   -4.5417   -0.4013 O.3      1 ZINC000038139973   -0.7300
44     C44     1.6374   -0.9527   -0.2754 C.2      1 ZINC000038139973    0.2400
45     C45     3.0497   -1.3840    0.0257 C.3      1 ZINC000038139973   -0.1500
46     N46     1.3578    0.3955   -0.4625 N.pl3    1 ZINC000038139973   -0.6400
47     H47     0.7514    2.8532   -0.1277 H        1 ZINC000038139973    0.0600
48     H48    -0.7891    2.6915   -1.0046 H        1 ZINC000038139973    0.1000
49     H49    -0.7413    2.4629    0.7600 H        1 ZINC000038139973    0.1100
50     H50    -4.6042    1.2097   -0.8374 H        1 ZINC000038139973    0.0800
51     H51    -5.3207   -0.4102   -1.0127 H        1 ZINC000038139973    0.1100
52     H52    -6.1436    0.6034    1.0560 H        1 ZINC000038139973    0.0900
53     H53    -5.0514   -0.7411    1.4653 H        1 ZINC000038139973    0.0900
54     H54    -3.6177    3.1683    1.8981 H        1 ZINC000038139973    0.0800
55     H55    -5.0092    2.8841    0.8250 H        1 ZINC000038139973    0.0800
56     H56    -7.2481    2.6306    1.7344 H        1 ZINC000038139973    0.1200
57     H57    -8.7834    3.1772    3.5803 H        1 ZINC000038139973    0.1200
58     H58    -7.8840    3.8002    5.7862 H        1 ZINC000038139973    0.1200
59     H59    -5.4493    3.8757    6.1465 H        1 ZINC000038139973    0.1200
60     H60    -3.9141    3.3245    4.3019 H        1 ZINC000038139973    0.1200
61     H61    -2.5528    2.6204    3.1924 H        1 ZINC000038139973    0.1200
62     H62    -0.6494    1.7483    4.4859 H        1 ZINC000038139973    0.1100
63     H63    -0.2022   -0.6711    4.5426 H        1 ZINC000038139973    0.1100
64     H64    -1.6571   -2.2256    3.3084 H        1 ZINC000038139973    0.1200
65     H65    -3.5672   -1.3647    2.0172 H        1 ZINC000038139973    0.1200
66     H66     0.5572   -0.6594   -2.8894 H        1 ZINC000038139973    0.1300
67     H67     0.0552   -1.2329   -5.2310 H        1 ZINC000038139973    0.1500
68     H68    -1.8252   -2.7334   -5.7551 H        1 ZINC000038139973    0.1500
69     H69    -2.6986   -3.0917   -1.5959 H        1 ZINC000038139973    0.1600
70     H70     2.1398   -5.8401    1.5049 H        1 ZINC000038139973    0.0800
71     H71     1.5613   -5.1798    3.0553 H        1 ZINC000038139973    0.1100
72     H72    -0.0036   -7.0505    3.4018 H        1 ZINC000038139973    0.0700
73     H73    -1.1453   -7.5211    2.1199 H        1 ZINC000038139973    0.0700
74     H74     0.5993   -7.8017    1.9050 H        1 ZINC000038139973    0.0700
75     H75    -0.9412   -3.8119    1.8488 H        1 ZINC000038139973    0.0500
76     H76    -2.0466   -5.1865    2.0870 H        1 ZINC000038139973    0.0700
77     H77    -0.8970   -4.7364    3.3693 H        1 ZINC000038139973    0.0700
78     H78     0.5310   -6.4856   -0.2631 H        1 ZINC000038139973    0.0800
79     H79    -1.2213   -6.2963   -0.0026 H        1 ZINC000038139973    0.1200
80     H80     3.5939   -1.5235   -0.9084 H        1 ZINC000038139973    0.1100
81     H81     3.5439   -0.6180    0.6232 H        1 ZINC000038139973    0.0900
82     H82     3.0326   -2.3225    0.5799 H        1 ZINC000038139973    0.0900
83     H83     2.0772    1.0177   -0.6528 H        1 ZINC000038139973    0.4200
@<TRIPOS>BOND
1     1     2     1
2     1     47    1
3     1     48    1
4     1     49    1
5     2     46    1
6     2     3     2
7     3     4     1
8     3     23    1
9     4     5     2
10    4     6     1
11    6     7     1
12    7     8     1
13    7     50    1
14    7     51    1
15    8     9     1
16    8     52    1
17    8     53    1
18    9     10    1
19    9     17    1
20    10    11    1
21    10    54    1
22    10    55    1
23    11    16    ar
24    11    12    ar
25    12    13    ar
26    12    56    1
27    13    14    ar
28    13    57    1
29    14    15    ar
30    14    58    1
31    15    16    ar
32    15    59    1
33    16    60    1
34    17    22    ar
35    17    18    ar
36    18    19    ar
37    18    61    1
38    19    20    ar
39    19    62    1
40    20    21    ar
41    20    63    1
42    21    22    ar
43    21    64    1
44    22    65    1
45    23    24    1
46    23    25    1
47    23    34    1
48    25    33    ar
49    25    26    ar
50    26    27    ar
51    26    66    1
52    27    28    ar
53    27    67    1
54    28    29    ar
55    28    68    1
56    29    30    1
57    29    33    ar
58    30    31    2
59    30    32    2
60    33    69    1
61    34    35    1
62    34    44    2
63    35    43    1
64    35    36    2
65    35    37    1
66    37    38    1
67    38    39    1
68    38    70    1
69    38    71    1
70    39    40    1
71    39    41    1
72    39    42    1
73    40    72    1
74    40    73    1
75    40    74    1
76    41    75    1
77    41    76    1
78    41    77    1
79    42    43    1
80    42    78    1
81    42    79    1
82    44    45    1
83    44    46    1
84    45    80    1
85    45    81    1
86    45    82    1
87    46    83    1
@<TRIPOS>SUBSTRUCTURE
1   ZINC000038139973 1     RESIDUE    1   A     ZIN   1
