REMARK  Name = ZINC000038139973
REMARK  15 active torsions:
REMARK  status: ('A' for Active; 'I' for Inactive)
REMARK    1  A    between atoms: C1_1  and  C2_2
REMARK    2  A    between atoms: C3_3  and  C4_4
REMARK    3  A    between atoms: C4_4  and  O6_6
REMARK    4  A    between atoms: O6_6  and  C7_7
REMARK    5  A    between atoms: C7_7  and  C8_8
REMARK    6  A    between atoms: C8_8  and  N9_9
REMARK    7  A    between atoms: N9_9  and  C10_10
REMARK    8  A    between atoms: N9_9  and  C17_17
REMARK    9  A    between atoms: C10_10  and  C11_11
REMARK   10  A    between atoms: C23_23  and  C25_25
REMARK   11  A    between atoms: C29_29  and  N30_30
REMARK   12  A    between atoms: C34_34  and  P35_35
REMARK   13  A    between atoms: C39_39  and  C40_40
REMARK   14  A    between atoms: C39_39  and  C41_41
REMARK   15  A    between atoms: C44_44  and  C45_45
REMARK                            x       y       z     vdW  Elec       q    Type
REMARK                         _______ _______ _______ _____ _____    ______ ____
ROOT
ATOM      1  C   UNL     1      -0.195   2.315  -0.172  0.00  0.00    +0.160 C 
ATOM      2  C   UNL     1       0.071   0.845  -0.369  0.00  0.00    +0.240 C 
ATOM      3  C   UNL     1      -0.960  -0.016  -0.459  0.00  0.00    -0.260 C 
ATOM      4  C   UNL     1      -0.735  -1.487  -0.666  0.00  0.00    +0.190 C 
ATOM      5  C   UNL     1       0.688  -1.858  -0.362  0.00  0.00    -0.820 C 
ATOM      6  C   UNL     1       1.637  -0.953  -0.275  0.00  0.00    +0.240 C 
ATOM      7  C   UNL     1       3.050  -1.384   0.026  0.00  0.00    +0.140 C 
ATOM      8  N   UNL     1       1.358   0.396  -0.463  0.00  0.00    -0.640 N 
ATOM      9  H   UNL     1       2.077   1.018  -0.653  0.00  0.00    +0.420 HD
ENDROOT
BRANCH   5  10
ATOM     10  P   UNL     1       1.109  -3.604  -0.107  0.00  0.00    +2.430 P 
ATOM     11  O   UNL     1       1.498  -3.866   1.449  0.00  0.00    -0.730 OA
ATOM     12  C   UNL     1       1.395  -5.201   1.978  0.00  0.00    +0.290 C 
ATOM     13  C   UNL     1      -0.005  -5.745   1.688  0.00  0.00    -0.170 C 
ATOM     14  C   UNL     1      -0.241  -5.857   0.181  0.00  0.00    +0.300 C 
ATOM     15  C   UNL     1      -1.047  -4.802   2.292  0.00  0.00    +0.050 C 
ATOM     16  C   UNL     1      -0.149  -7.129   2.325  0.00  0.00    +0.070 C 
ATOM     17  O   UNL     1       2.232  -3.992  -0.990  0.00  0.00    -1.010 OA
ATOM     18  O   UNL     1      -0.185  -4.542  -0.401  0.00  0.00    -0.730 OA
ENDBRANCH   5  10
BRANCH   4  19
ATOM     19  C   UNL     1      -1.042  -1.838  -2.099  0.00  0.00    -0.080 A 
ATOM     20  C   UNL     1      -0.268  -1.318  -3.119  0.00  0.00    +0.080 A 
ATOM     21  C   UNL     1      -0.549  -1.640  -4.434  0.00  0.00    +0.030 A 
ATOM     22  C   UNL     1      -1.605  -2.482  -4.728  0.00  0.00    +0.090 A 
ATOM     23  C   UNL     1      -2.378  -3.003  -3.708  0.00  0.00    -0.040 A 
ATOM     24  C   UNL     1      -2.094  -2.685  -2.393  0.00  0.00    +0.130 A 
BRANCH  23  25
ATOM     25  N   UNL     1      -3.509  -3.905  -4.023  0.00  0.00    +0.030 N 
ATOM     26  O   UNL     1      -4.191  -4.364  -3.124  0.00  0.00    -0.160 OA
ATOM     27  O   UNL     1      -3.758  -4.188  -5.181  0.00  0.00    -0.160 OA
ENDBRANCH  23  25
ENDBRANCH   4  19
BRANCH   3  28
ATOM     28  C   UNL     1      -2.281   0.473  -0.356  0.00  0.00    +0.530 C 
ATOM     29  O   UNL     1      -2.477   1.658  -0.157  0.00  0.00    -0.510 OA
BRANCH  28  30
ATOM     30  O   UNL     1      -3.326  -0.373  -0.477  0.00  0.00    -0.340 OA
BRANCH  30  31
ATOM     31  C   UNL     1      -4.634   0.201  -0.427  0.00  0.00    +0.230 C 
BRANCH  31  32
ATOM     32  C   UNL     1      -5.111   0.255   1.026  0.00  0.00    +0.280 C 
BRANCH  32  33
ATOM     33  N   UNL     1      -4.262   1.176   1.785  0.00  0.00    -0.610 N 
BRANCH  33  34
ATOM     34  C   UNL     1      -3.181   0.684   2.520  0.00  0.00    +0.230 A 
ATOM     35  C   UNL     1      -2.358   1.558   3.217  0.00  0.00    -0.070 A 
ATOM     36  C   UNL     1      -1.290   1.069   3.943  0.00  0.00    +0.030 A 
ATOM     37  C   UNL     1      -1.039  -0.291   3.975  0.00  0.00    -0.070 A 
ATOM     38  C   UNL     1      -1.856  -1.164   3.281  0.00  0.00    +0.050 A 
ATOM     39  C   UNL     1      -2.929  -0.682   2.558  0.00  0.00    -0.080 A 
ENDBRANCH  33  34
BRANCH  33  40
ATOM     40  C   UNL     1      -4.547   2.612   1.774  0.00  0.00    +0.340 C 
BRANCH  40  41
ATOM     41  C   UNL     1      -5.487   2.947   2.904  0.00  0.00    -0.110 A 
ATOM     42  C   UNL     1      -6.854   2.904   2.702  0.00  0.00    +0.010 A 
ATOM     43  C   UNL     1      -7.715   3.210   3.738  0.00  0.00    +0.000 A 
ATOM     44  C   UNL     1      -7.211   3.560   4.977  0.00  0.00    +0.000 A 
ATOM     45  C   UNL     1      -5.844   3.602   5.179  0.00  0.00    +0.000 A 
ATOM     46  C   UNL     1      -4.982   3.291   4.144  0.00  0.00    +0.020 A 
ENDBRANCH  40  41
ENDBRANCH  33  40
ENDBRANCH  32  33
ENDBRANCH  31  32
ENDBRANCH  30  31
ENDBRANCH  28  30
ENDBRANCH   3  28
TORSDOF 11
