REMARK  Name = ZINC000003920266
REMARK  10 active torsions:
REMARK  status: ('A' for Active; 'I' for Inactive)
REMARK    1  A    between atoms: C_1  and  C_2
REMARK    2  A    between atoms: C_2  and  C_4
REMARK    3  A    between atoms: C_4  and  O_5
REMARK    4  A    between atoms: C_8  and  O_9
REMARK    5  A    between atoms: C_22  and  O_23
REMARK    6  A    between atoms: C_25  and  O_27
REMARK    7  A    between atoms: O_27  and  C_28
REMARK    8  A    between atoms: C_31  and  N_33
REMARK    9  A    between atoms: C_37  and  O_39
REMARK   10  A    between atoms: C_40  and  C_42
REMARK                            x       y       z     vdW  Elec       q    Type
REMARK                         _______ _______ _______ _____ _____    ______ ____
ROOT
ATOM      1  C   UNL     1      -1.465  -0.667   0.173  0.00  0.00    +0.130 C 
ATOM      2  C   UNL     1      -1.858  -1.099   1.584  0.00  0.00    +0.082 C 
ATOM      3  C   UNL     1      -0.929  -2.173   2.090  0.00  0.00    +0.007 A 
ATOM      4  C   UNL     1      -0.907  -2.406   3.473  0.00  0.00    +0.132 A 
ATOM      5  C   UNL     1      -0.078  -3.387   4.010  0.00  0.00    +0.078 A 
ATOM      6  C   UNL     1       0.741  -4.149   3.151  0.00  0.00    +0.078 A 
ATOM      7  C   UNL     1       0.711  -3.903   1.780  0.00  0.00    +0.134 A 
ATOM      8  C   UNL     1       1.617  -5.193   3.713  0.00  0.00    +0.198 C 
ATOM      9  C   UNL     1       1.405  -5.638   5.108  0.00  0.00    +0.033 A 
ATOM     10  C   UNL     1       2.005  -6.801   5.579  0.00  0.00    +0.012 A 
ATOM     11  C   UNL     1       1.796  -7.201   6.888  0.00  0.00    +0.001 A 
ATOM     12  C   UNL     1       0.995  -6.453   7.730  0.00  0.00    +0.001 A 
ATOM     13  C   UNL     1       0.390  -5.293   7.277  0.00  0.00    +0.012 A 
ATOM     14  C   UNL     1       0.590  -4.876   5.965  0.00  0.00    +0.033 A 
ATOM     15  O   UNL     1       2.501  -5.684   3.038  0.00  0.00    -0.286 OA
ATOM     16  C   UNL     1      -0.049  -3.640   5.462  0.00  0.00    +0.198 C 
ATOM     17  O   UNL     1      -0.544  -2.844   6.236  0.00  0.00    -0.286 OA
ATOM     18  C   UNL     1      -0.128  -2.910   1.255  0.00  0.00    +0.030 A 
ATOM     19  C   UNL     1      -0.096  -2.695  -0.236  0.00  0.00    +0.158 C 
ATOM     20  C   UNL     1      -1.330  -1.923  -0.696  0.00  0.00    +0.079 C 
ENDROOT
BRANCH   1  22
ATOM     21  C   UNL     1       0.213   1.026  -0.889  0.00  0.00    +0.089 C 
ATOM     22  C   UNL     1      -0.149   0.065   0.214  0.00  0.00    +0.162 C 
ATOM     23  O   UNL     1       0.615  -0.117   1.131  0.00  0.00    -0.295 OA
ENDBRANCH   1  22
BRANCH   7  24
ATOM     24  O   UNL     1       1.497  -4.630   0.948  0.00  0.00    -0.506 OA
ATOM     25  H   UNL     1       1.057  -5.402   0.567  0.00  0.00    +0.292 HD
ENDBRANCH   7  24
BRANCH   4  26
ATOM     26  O   UNL     1      -1.699  -1.670   4.292  0.00  0.00    -0.506 OA
ATOM     27  H   UNL     1      -2.575  -2.052   4.440  0.00  0.00    +0.292 HD
ENDBRANCH   4  26
BRANCH   1  28
ATOM     28  O   UNL     1      -2.475   0.186  -0.368  0.00  0.00    -0.381 OA
ATOM     29  H   UNL     1      -2.618   0.997   0.139  0.00  0.00    +0.211 HD
ENDBRANCH   1  28
BRANCH  19  30
ATOM     30  O   UNL     1      -0.062  -3.963  -0.894  0.00  0.00    -0.343 OA
BRANCH  30  31
ATOM     31  C   UNL     1       0.715  -3.975  -2.094  0.00  0.00    +0.257 C 
ATOM     32  C   UNL     1       0.958  -5.423  -2.530  0.00  0.00    +0.118 C 
ATOM     33  C   UNL     1      -0.387  -6.087  -2.840  0.00  0.00    +0.097 C 
ATOM     34  C   UNL     1      -1.112  -5.271  -3.914  0.00  0.00    +0.191 C 
ATOM     35  C   UNL     1      -1.275  -3.829  -3.424  0.00  0.00    +0.152 C 
ATOM     36  C   UNL     1      -1.946  -2.993  -4.516  0.00  0.00    +0.041 C 
ATOM     37  O   UNL     1       0.010  -3.281  -3.124  0.00  0.00    -0.345 OA
BRANCH  33  38
ATOM     38  N   UNL     1      -0.158  -7.453  -3.329  0.00  0.00    +0.223 N 
ATOM     39  H   UNL     1       0.401  -7.421  -4.168  0.00  0.00    +0.200 HD
ATOM     40  H   UNL     1      -1.045  -7.890  -3.533  0.00  0.00    +0.200 HD
ATOM     41  H   UNL     1       0.325  -7.987  -2.623  0.00  0.00    +0.200 HD
ENDBRANCH  33  38
BRANCH  34  42
ATOM     42  O   UNL     1      -0.347  -5.282  -5.120  0.00  0.00    -0.384 OA
ATOM     43  H   UNL     1      -0.748  -4.783  -5.845  0.00  0.00    +0.210 HD
ENDBRANCH  34  42
ENDBRANCH  30  31
ENDBRANCH  19  30
TORSDOF 8
