@<TRIPOS>MOLECULE
ZINC000003920266
  64   68    0    0    0
SMALL
NO_CHARGES
@<TRIPOS>ATOM
   1 C1             0.2129     1.0262    -0.8890 C.3     
   2 C2            -0.1492     0.0654     0.2141 C.2     
   3 O3             0.6154    -0.1173     1.1308 O.2     
   4 C4            -1.4653    -0.6675     0.1732 C.3     
   5 O5            -2.4751     0.1865    -0.3682 O.3     
   6 C6            -1.8578    -1.0992     1.5841 C.3     
   7 C7            -0.9293    -2.1731     2.0902 C.ar    
   8 C8            -0.9071    -2.4057     3.4726 C.ar    
   9 O9            -1.6986    -1.6702     4.2920 O.3     
  10 C10           -0.0783    -3.3870     4.0098 C.ar    
  11 C11            0.7412    -4.1486     3.1505 C.ar    
  12 C12            1.6167    -5.1934     3.7126 C.2     
  13 O13            2.5014    -5.6835     3.0379 O.2     
  14 C14            1.4055    -5.6377     5.1079 C.ar    
  15 C15            2.0048    -6.8007     5.5791 C.ar    
  16 C16            1.7955    -7.2010     6.8875 C.ar    
  17 C17            0.9945    -6.4526     7.7303 C.ar    
  18 C18            0.3902    -5.2926     7.2772 C.ar    
  19 C19            0.5900    -4.8763     5.9655 C.ar    
  20 C20           -0.0486    -3.6402     5.4621 C.2     
  21 O21           -0.5436    -2.8439     6.2360 O.2     
  22 C22            0.7106    -3.9029     1.7804 C.ar    
  23 O23            1.4967    -4.6299     0.9483 O.3     
  24 C24           -0.1279    -2.9097     1.2551 C.ar    
  25 C25           -0.0958    -2.6952    -0.2364 C.3     
  26 H26            0.7987    -2.1303    -0.4989 H       
  27 O27           -0.0617    -3.9634    -0.8939 O.3     
  28 C28            0.7147    -3.9754    -2.0936 C.3     
  29 H29            1.6709    -3.4846    -1.9126 H       
  30 C30            0.9581    -5.4226    -2.5298 C.3     
  31 C31           -0.3867    -6.0873    -2.8397 C.3     
  32 H32           -0.9939    -6.1209    -1.9351 H       
  33 N33           -0.1584    -7.4533    -3.3293 N.4     
  34 H34            0.3251    -7.9874    -2.6229 H       
  35 H35           -1.0449    -7.8901    -3.5331 H       
  36 H36            0.4013    -7.4208    -4.1682 H       
  37 C37           -1.1120    -5.2706    -3.9136 C.3     
  38 H38           -2.0939    -5.7053    -4.1007 H       
  39 O39           -0.3468    -5.2824    -5.1204 O.3     
  40 C40           -1.2754    -3.8293    -3.4240 C.3     
  41 H41           -1.8936    -3.8182    -2.5264 H       
  42 C42           -1.9457    -2.9925    -4.5155 C.3     
  43 O43            0.0098    -3.2806    -3.1243 O.3     
  44 C44           -1.3304    -1.9234    -0.6961 C.3     
  45 H45            1.1940     1.4566    -0.6884 H       
  46 H46            0.2369     0.4947    -1.8404 H       
  47 H47           -0.5303     1.8221    -0.9361 H       
  48 H48           -2.6179     0.9973     0.1390 H       
  49 H49           -1.8074    -0.2378     2.2502 H       
  50 H50           -2.8778    -1.4832     1.5715 H       
  51 H51           -2.5745    -2.0524     4.4398 H       
  52 H52            2.6315    -7.3900     4.9260 H       
  53 H53            2.2610    -8.1046     7.2527 H       
  54 H54            0.8389    -6.7756     8.7491 H       
  55 H55           -0.2345    -4.7126     7.9404 H       
  56 H56            1.0572    -5.4022     0.5669 H       
  57 H57            1.5841    -5.4337    -3.4220 H       
  58 H58            1.4566    -5.9660    -1.7271 H       
  59 H59           -0.7476    -4.7833    -5.8452 H       
  60 H60           -2.9255    -3.4117    -4.7445 H       
  61 H61           -2.0620    -1.9664    -4.1668 H       
  62 H62           -1.3272    -3.0034    -5.4130 H       
  63 H63           -2.2173    -2.5465    -0.5805 H       
  64 H64           -1.2161    -1.6365    -1.7414 H       
@<TRIPOS>BOND
   1    1    2 1
   2    1   45 1
   3    1   46 1
   4    1   47 1
   5    2    3 2
   6    2    4 1
   7    4   44 1
   8    4    5 1
   9    4    6 1
  10    5   48 1
  11    6    7 1
  12    6   49 1
  13    6   50 1
  14    7   24 ar
  15    7    8 ar
  16    8    9 1
  17    8   10 ar
  18    9   51 1
  19   10   20 1
  20   10   11 ar
  21   11   12 1
  22   11   22 ar
  23   12   13 2
  24   12   14 1
  25   14   19 ar
  26   14   15 ar
  27   15   16 ar
  28   15   52 1
  29   16   17 ar
  30   16   53 1
  31   17   18 ar
  32   17   54 1
  33   18   19 ar
  34   18   55 1
  35   19   20 1
  36   20   21 2
  37   22   23 1
  38   22   24 ar
  39   23   56 1
  40   24   25 1
  41   25   26 1
  42   25   27 1
  43   25   44 1
  44   27   28 1
  45   28   29 1
  46   28   43 1
  47   28   30 1
  48   30   31 1
  49   30   57 1
  50   30   58 1
  51   31   32 1
  52   31   33 1
  53   31   37 1
  54   33   34 1
  55   33   35 1
  56   33   36 1
  57   37   38 1
  58   37   39 1
  59   37   40 1
  60   39   59 1
  61   40   41 1
  62   40   42 1
  63   40   43 1
  64   42   60 1
  65   42   61 1
  66   42   62 1
  67   44   63 1
  68   44   64 1
