MODEL 1
REMARK VINA RESULT:      -7.9      0.000      0.000
REMARK  Name = ZINC000003920266
REMARK  10 active torsions:
REMARK  status: ('A' for Active; 'I' for Inactive)
REMARK    1  A    between atoms: C_1  and  C_2
REMARK    2  A    between atoms: C_2  and  C_4
REMARK    3  A    between atoms: C_4  and  O_5
REMARK    4  A    between atoms: C_8  and  O_9
REMARK    5  A    between atoms: C_22  and  O_23
REMARK    6  A    between atoms: C_25  and  O_27
REMARK    7  A    between atoms: O_27  and  C_28
REMARK    8  A    between atoms: C_31  and  N_33
REMARK    9  A    between atoms: C_37  and  O_39
REMARK   10  A    between atoms: C_40  and  C_42
REMARK                            x       y       z     vdW  Elec       q    Type
REMARK                         _______ _______ _______ _____ _____    ______ ____
ROOT
ATOM      1  C   UNL     1       3.860  -1.695 -32.074  0.00  0.00    +0.130 C 
ATOM      2  C   UNL     1       2.519  -1.535 -32.787  0.00  0.00    +0.082 C 
ATOM      3  C   UNL     1       2.385  -2.544 -33.899  0.00  0.00    +0.007 A 
ATOM      4  C   UNL     1       1.095  -2.788 -34.394  0.00  0.00    +0.132 A 
ATOM      5  C   UNL     1       0.897  -3.702 -35.425  0.00  0.00    +0.078 A 
ATOM      6  C   UNL     1       2.005  -4.383 -35.971  0.00  0.00    +0.078 A 
ATOM      7  C   UNL     1       3.279  -4.133 -35.466  0.00  0.00    +0.134 A 
ATOM      8  C   UNL     1       1.802  -5.348 -37.067  0.00  0.00    +0.198 C 
ATOM      9  C   UNL     1       0.507  -5.365 -37.782  0.00  0.00    +0.033 A 
ATOM     10  C   UNL     1       0.373  -6.044 -38.988  0.00  0.00    +0.012 A 
ATOM     11  C   UNL     1      -0.847  -6.050 -39.643  0.00  0.00    +0.001 A 
ATOM     12  C   UNL     1      -1.933  -5.385 -39.106  0.00  0.00    +0.001 A 
ATOM     13  C   UNL     1      -1.817  -4.703 -37.907  0.00  0.00    +0.012 A 
ATOM     14  C   UNL     1      -0.599  -4.688 -37.236  0.00  0.00    +0.033 A 
ATOM     15  O   UNL     1       2.688  -6.119 -37.381  0.00  0.00    -0.286 OA
ATOM     16  C   UNL     1      -0.454  -3.964 -35.953  0.00  0.00    +0.198 C 
ATOM     17  O   UNL     1      -1.437  -3.590 -35.344  0.00  0.00    -0.286 OA
ATOM     18  C   UNL     1       3.462  -3.210 -34.426  0.00  0.00    +0.030 A 
ATOM     19  C   UNL     1       4.868  -3.003 -33.925  0.00  0.00    +0.158 C 
ATOM     20  C   UNL     1       4.971  -1.703 -33.131  0.00  0.00    +0.079 C 
ENDROOT
BRANCH   1  22
ATOM     21  C   UNL     1       2.584  -3.609 -30.843  0.00  0.00    +0.089 C 
ATOM     22  C   UNL     1       3.878  -2.992 -31.309  0.00  0.00    +0.162 C 
ATOM     23  O   UNL     1       4.928  -3.539 -31.071  0.00  0.00    -0.295 OA
ENDBRANCH   1  22
BRANCH   7  24
ATOM     24  O   UNL     1       4.349  -4.784 -35.984  0.00  0.00    -0.506 OA
ATOM     25  H   UNL     1       5.111  -4.824 -35.390  0.00  0.00    +0.292 HD
ENDBRANCH   7  24
BRANCH   4  26
ATOM     26  O   UNL     1       0.035  -2.128 -33.865  0.00  0.00    -0.506 OA
ATOM     27  H   UNL     1      -0.686  -1.975 -34.491  0.00  0.00    +0.292 HD
ENDBRANCH   4  26
BRANCH   1  28
ATOM     28  O   UNL     1       4.060  -0.602 -31.175  0.00  0.00    -0.381 OA
ATOM     29  H   UNL     1       4.103  -0.862 -30.244  0.00  0.00    +0.211 HD
ENDBRANCH   1  28
BRANCH  19  30
ATOM     30  O   UNL     1       5.761  -2.946 -35.039  0.00  0.00    -0.343 OA
BRANCH  30  31
ATOM     31  C   UNL     1       7.139  -2.838 -34.675  0.00  0.00    +0.257 C 
ATOM     32  C   UNL     1       7.548  -4.066 -33.855  0.00  0.00    +0.118 C 
ATOM     33  C   UNL     1       7.391  -5.321 -34.719  0.00  0.00    +0.097 C 
ATOM     34  C   UNL     1       8.234  -5.163 -35.988  0.00  0.00    +0.191 C 
ATOM     35  C   UNL     1       7.798  -3.893 -36.725  0.00  0.00    +0.152 C 
ATOM     36  C   UNL     1       8.676  -3.696 -37.963  0.00  0.00    +0.041 C 
ATOM     37  O   UNL     1       7.939  -2.768 -35.855  0.00  0.00    -0.345 OA
BRANCH  33  38
ATOM     38  N   UNL     1       7.850  -6.496 -33.966  0.00  0.00    +0.223 N 
ATOM     39  H   UNL     1       8.741  -6.294 -33.538  0.00  0.00    +0.200 HD
ATOM     40  H   UNL     1       7.948  -7.280 -34.593  0.00  0.00    +0.200 HD
ATOM     41  H   UNL     1       7.177  -6.720 -33.249  0.00  0.00    +0.200 HD
ENDBRANCH  33  38
BRANCH  34  42
ATOM     42  O   UNL     1       9.614  -5.062 -35.636  0.00  0.00    -0.384 OA
ATOM     43  H   UNL     1       9.899  -4.164 -35.415  0.00  0.00    +0.210 HD
ENDBRANCH  34  42
ENDBRANCH  30  31
ENDBRANCH  19  30
TORSDOF 8
ENDMDL
MODEL 2
REMARK VINA RESULT:      -7.9     19.722     22.919
REMARK  Name = ZINC000003920266
REMARK  10 active torsions:
REMARK  status: ('A' for Active; 'I' for Inactive)
REMARK    1  A    between atoms: C_1  and  C_2
REMARK    2  A    between atoms: C_2  and  C_4
REMARK    3  A    between atoms: C_4  and  O_5
REMARK    4  A    between atoms: C_8  and  O_9
REMARK    5  A    between atoms: C_22  and  O_23
REMARK    6  A    between atoms: C_25  and  O_27
REMARK    7  A    between atoms: O_27  and  C_28
REMARK    8  A    between atoms: C_31  and  N_33
REMARK    9  A    between atoms: C_37  and  O_39
REMARK   10  A    between atoms: C_40  and  C_42
REMARK                            x       y       z     vdW  Elec       q    Type
REMARK                         _______ _______ _______ _____ _____    ______ ____
ROOT
ATOM      1  C   UNL     1       2.443  18.901 -30.053  0.00  0.00    +0.130 C 
ATOM      2  C   UNL     1       1.244  19.749 -29.633  0.00  0.00    +0.082 C 
ATOM      3  C   UNL     1       0.252  18.920 -28.858  0.00  0.00    +0.007 A 
ATOM      4  C   UNL     1      -0.697  19.607 -28.086  0.00  0.00    +0.132 A 
ATOM      5  C   UNL     1      -1.648  18.907 -27.350  0.00  0.00    +0.078 A 
ATOM      6  C   UNL     1      -1.653  17.497 -27.386  0.00  0.00    +0.078 A 
ATOM      7  C   UNL     1      -0.702  16.829 -28.154  0.00  0.00    +0.134 A 
ATOM      8  C   UNL     1      -2.661  16.750 -26.613  0.00  0.00    +0.198 C 
ATOM      9  C   UNL     1      -3.830  17.472 -26.065  0.00  0.00    +0.033 A 
ATOM     10  C   UNL     1      -4.934  16.773 -25.586  0.00  0.00    +0.012 A 
ATOM     11  C   UNL     1      -6.018  17.466 -25.076  0.00  0.00    +0.001 A 
ATOM     12  C   UNL     1      -6.012  18.848 -25.039  0.00  0.00    +0.001 A 
ATOM     13  C   UNL     1      -4.922  19.559 -25.511  0.00  0.00    +0.012 A 
ATOM     14  C   UNL     1      -3.824  18.878 -26.026  0.00  0.00    +0.033 A 
ATOM     15  O   UNL     1      -2.535  15.555 -26.430  0.00  0.00    -0.286 OA
ATOM     16  C   UNL     1      -2.650  19.620 -26.537  0.00  0.00    +0.198 C 
ATOM     17  O   UNL     1      -2.514  20.803 -26.290  0.00  0.00    -0.286 OA
ATOM     18  C   UNL     1       0.251  17.549 -28.889  0.00  0.00    +0.030 A 
ATOM     19  C   UNL     1       1.254  16.755 -29.686  0.00  0.00    +0.158 C 
ATOM     20  C   UNL     1       1.921  17.634 -30.741  0.00  0.00    +0.079 C 
ENDROOT
BRANCH   1  22
ATOM     21  C   UNL     1       3.420  19.510 -27.711  0.00  0.00    +0.089 C 
ATOM     22  C   UNL     1       3.248  18.523 -28.837  0.00  0.00    +0.162 C 
ATOM     23  O   UNL     1       3.754  17.430 -28.763  0.00  0.00    -0.295 OA
ENDBRANCH   1  22
BRANCH   7  24
ATOM     24  O   UNL     1      -0.699  15.474 -28.193  0.00  0.00    -0.506 OA
ATOM     25  H   UNL     1      -1.543  15.086 -28.460  0.00  0.00    +0.292 HD
ENDBRANCH   7  24
BRANCH   4  26
ATOM     26  O   UNL     1      -0.687  20.964 -28.058  0.00  0.00    -0.506 OA
ATOM     27  H   UNL     1      -1.551  21.360 -27.880  0.00  0.00    +0.292 HD
ENDBRANCH   4  26
BRANCH   1  28
ATOM     28  O   UNL     1       3.260  19.640 -30.962  0.00  0.00    -0.381 OA
ATOM     29  H   UNL     1       3.634  19.107 -31.677  0.00  0.00    +0.211 HD
ENDBRANCH   1  28
BRANCH  19  30
ATOM     30  O   UNL     1       0.588  15.668 -30.332  0.00  0.00    -0.343 OA
BRANCH  30  31
ATOM     31  C   UNL     1       0.899  15.539 -31.721  0.00  0.00    +0.257 C 
ATOM     32  C   UNL     1       1.691  14.248 -31.949  0.00  0.00    +0.118 C 
ATOM     33  C   UNL     1       0.824  13.050 -31.552  0.00  0.00    +0.097 C 
ATOM     34  C   UNL     1      -0.476  13.083 -32.361  0.00  0.00    +0.191 C 
ATOM     35  C   UNL     1      -1.184  14.419 -32.117  0.00  0.00    +0.152 C 
ATOM     36  C   UNL     1      -2.455  14.485 -32.968  0.00  0.00    +0.041 C 
ATOM     37  O   UNL     1      -0.312  15.492 -32.477  0.00  0.00    -0.345 OA
BRANCH  33  38
ATOM     38  N   UNL     1       1.549  11.805 -31.836  0.00  0.00    +0.223 N 
ATOM     39  H   UNL     1       1.653  11.274 -30.985  0.00  0.00    +0.200 HD
ATOM     40  H   UNL     1       2.462  12.025 -32.208  0.00  0.00    +0.200 HD
ATOM     41  H   UNL     1       1.034  11.261 -32.511  0.00  0.00    +0.200 HD
ENDBRANCH  33  38
BRANCH  34  42
ATOM     42  O   UNL     1      -0.177  12.948 -33.751  0.00  0.00    -0.384 OA
ATOM     43  H   UNL     1       0.489  13.571 -34.073  0.00  0.00    +0.210 HD
ENDBRANCH  34  42
ENDBRANCH  30  31
ENDBRANCH  19  30
TORSDOF 8
ENDMDL
MODEL 3
REMARK VINA RESULT:      -7.5      2.460      7.201
REMARK  Name = ZINC000003920266
REMARK  10 active torsions:
REMARK  status: ('A' for Active; 'I' for Inactive)
REMARK    1  A    between atoms: C_1  and  C_2
REMARK    2  A    between atoms: C_2  and  C_4
REMARK    3  A    between atoms: C_4  and  O_5
REMARK    4  A    between atoms: C_8  and  O_9
REMARK    5  A    between atoms: C_22  and  O_23
REMARK    6  A    between atoms: C_25  and  O_27
REMARK    7  A    between atoms: O_27  and  C_28
REMARK    8  A    between atoms: C_31  and  N_33
REMARK    9  A    between atoms: C_37  and  O_39
REMARK   10  A    between atoms: C_40  and  C_42
REMARK                            x       y       z     vdW  Elec       q    Type
REMARK                         _______ _______ _______ _____ _____    ______ ____
ROOT
ATOM      1  C   UNL     1       2.625  -3.243 -32.198  0.00  0.00    +0.130 C 
ATOM      2  C   UNL     1       4.064  -3.676 -31.925  0.00  0.00    +0.082 C 
ATOM      3  C   UNL     1       4.866  -3.694 -33.201  0.00  0.00    +0.007 A 
ATOM      4  C   UNL     1       6.264  -3.695 -33.083  0.00  0.00    +0.132 A 
ATOM      5  C   UNL     1       7.068  -3.717 -34.220  0.00  0.00    +0.078 A 
ATOM      6  C   UNL     1       6.465  -3.740 -35.495  0.00  0.00    +0.078 A 
ATOM      7  C   UNL     1       5.076  -3.735 -35.596  0.00  0.00    +0.134 A 
ATOM      8  C   UNL     1       7.311  -3.769 -36.702  0.00  0.00    +0.198 C 
ATOM      9  C   UNL     1       8.750  -4.083 -36.566  0.00  0.00    +0.033 A 
ATOM     10  C   UNL     1       9.514  -4.401 -37.684  0.00  0.00    +0.012 A 
ATOM     11  C   UNL     1      10.860  -4.691 -37.538  0.00  0.00    +0.001 A 
ATOM     12  C   UNL     1      11.450  -4.666 -36.288  0.00  0.00    +0.001 A 
ATOM     13  C   UNL     1      10.705  -4.351 -35.165  0.00  0.00    +0.012 A 
ATOM     14  C   UNL     1       9.351  -4.057 -35.294  0.00  0.00    +0.033 A 
ATOM     15  O   UNL     1       6.831  -3.540 -37.795  0.00  0.00    -0.286 OA
ATOM     16  C   UNL     1       8.537  -3.719 -34.106  0.00  0.00    +0.198 C 
ATOM     17  O   UNL     1       9.074  -3.448 -33.049  0.00  0.00    -0.286 OA
ATOM     18  C   UNL     1       4.280  -3.710 -34.442  0.00  0.00    +0.030 A 
ATOM     19  C   UNL     1       2.785  -3.694 -34.632  0.00  0.00    +0.158 C 
ATOM     20  C   UNL     1       2.073  -4.099 -33.344  0.00  0.00    +0.079 C 
ENDROOT
BRANCH   1  22
ATOM     21  C   UNL     1       3.836  -0.944 -32.435  0.00  0.00    +0.089 C 
ATOM     22  C   UNL     1       2.599  -1.789 -32.592  0.00  0.00    +0.162 C 
ATOM     23  O   UNL     1       1.587  -1.302 -33.036  0.00  0.00    -0.295 OA
ENDBRANCH   1  22
BRANCH   7  24
ATOM     24  O   UNL     1       4.489  -3.755 -36.818  0.00  0.00    -0.506 OA
ATOM     25  H   UNL     1       4.406  -4.640 -37.199  0.00  0.00    +0.292 HD
ENDBRANCH   7  24
BRANCH   4  26
ATOM     26  O   UNL     1       6.835  -3.674 -31.853  0.00  0.00    -0.506 OA
ATOM     27  H   UNL     1       6.823  -4.528 -31.399  0.00  0.00    +0.292 HD
ENDBRANCH   4  26
BRANCH   1  28
ATOM     28  O   UNL     1       1.833  -3.440 -31.026  0.00  0.00    -0.381 OA
ATOM     29  H   UNL     1       2.080  -4.219 -30.510  0.00  0.00    +0.211 HD
ENDBRANCH   1  28
BRANCH  19  30
ATOM     30  O   UNL     1       2.433  -4.609 -35.672  0.00  0.00    -0.343 OA
BRANCH  30  31
ATOM     31  C   UNL     1       1.303  -5.429 -35.367  0.00  0.00    +0.257 C 
ATOM     32  C   UNL     1       0.071  -4.894 -36.103  0.00  0.00    +0.118 C 
ATOM     33  C   UNL     1       0.312  -4.977 -37.613  0.00  0.00    +0.097 C 
ATOM     34  C   UNL     1       0.629  -6.427 -37.990  0.00  0.00    +0.191 C 
ATOM     35  C   UNL     1       1.840  -6.902 -37.181  0.00  0.00    +0.152 C 
ATOM     36  C   UNL     1       2.128  -8.369 -37.509  0.00  0.00    +0.041 C 
ATOM     37  O   UNL     1       1.562  -6.770 -35.786  0.00  0.00    -0.345 OA
BRANCH  33  38
ATOM     38  N   UNL     1      -0.893  -4.535 -38.327  0.00  0.00    +0.223 N 
ATOM     39  H   UNL     1      -1.107  -5.189 -39.064  0.00  0.00    +0.200 HD
ATOM     40  H   UNL     1      -0.731  -3.621 -38.725  0.00  0.00    +0.200 HD
ATOM     41  H   UNL     1      -1.668  -4.488 -37.683  0.00  0.00    +0.200 HD
ENDBRANCH  33  38
BRANCH  34  42
ATOM     42  O   UNL     1      -0.496  -7.255 -37.695  0.00  0.00    -0.384 OA
ATOM     43  H   UNL     1      -0.688  -7.915 -38.375  0.00  0.00    +0.210 HD
ENDBRANCH  34  42
ENDBRANCH  30  31
ENDBRANCH  19  30
TORSDOF 8
ENDMDL
MODEL 4
REMARK VINA RESULT:      -7.4     16.769     19.475
REMARK  Name = ZINC000003920266
REMARK  10 active torsions:
REMARK  status: ('A' for Active; 'I' for Inactive)
REMARK    1  A    between atoms: C_1  and  C_2
REMARK    2  A    between atoms: C_2  and  C_4
REMARK    3  A    between atoms: C_4  and  O_5
REMARK    4  A    between atoms: C_8  and  O_9
REMARK    5  A    between atoms: C_22  and  O_23
REMARK    6  A    between atoms: C_25  and  O_27
REMARK    7  A    between atoms: O_27  and  C_28
REMARK    8  A    between atoms: C_31  and  N_33
REMARK    9  A    between atoms: C_37  and  O_39
REMARK   10  A    between atoms: C_40  and  C_42
REMARK                            x       y       z     vdW  Elec       q    Type
REMARK                         _______ _______ _______ _____ _____    ______ ____
ROOT
ATOM      1  C   UNL     1       0.265  14.188 -30.775  0.00  0.00    +0.130 C 
ATOM      2  C   UNL     1       0.235  12.800 -31.410  0.00  0.00    +0.082 C 
ATOM      3  C   UNL     1      -0.183  12.886 -32.856  0.00  0.00    +0.007 A 
ATOM      4  C   UNL     1       0.100  11.782 -33.675  0.00  0.00    +0.132 A 
ATOM      5  C   UNL     1      -0.262  11.790 -35.019  0.00  0.00    +0.078 A 
ATOM      6  C   UNL     1      -0.920  12.917 -35.554  0.00  0.00    +0.078 A 
ATOM      7  C   UNL     1      -1.190  14.007 -34.729  0.00  0.00    +0.134 A 
ATOM      8  C   UNL     1      -1.311  12.928 -36.975  0.00  0.00    +0.198 C 
ATOM      9  C   UNL     1      -1.292  11.661 -37.738  0.00  0.00    +0.033 A 
ATOM     10  C   UNL     1      -1.918  11.571 -38.977  0.00  0.00    +0.012 A 
ATOM     11  C   UNL     1      -1.889  10.377 -39.677  0.00  0.00    +0.001 A 
ATOM     12  C   UNL     1      -1.243   9.273 -39.154  0.00  0.00    +0.001 A 
ATOM     13  C   UNL     1      -0.615   9.346 -37.922  0.00  0.00    +0.012 A 
ATOM     14  C   UNL     1      -0.634  10.538 -37.205  0.00  0.00    +0.033 A 
ATOM     15  O   UNL     1      -1.647  13.966 -37.513  0.00  0.00    -0.286 OA
ATOM     16  C   UNL     1       0.030  10.634 -35.887  0.00  0.00    +0.198 C 
ATOM     17  O   UNL     1       0.806   9.772 -35.523  0.00  0.00    -0.286 OA
ATOM     18  C   UNL     1      -0.817  13.985 -33.378  0.00  0.00    +0.030 A 
ATOM     19  C   UNL     1      -1.133  15.206 -32.553  0.00  0.00    +0.158 C 
ATOM     20  C   UNL     1      -1.072  14.880 -31.063  0.00  0.00    +0.079 C 
ENDROOT
BRANCH   1  22
ATOM     21  C   UNL     1       1.416  16.491 -31.200  0.00  0.00    +0.089 C 
ATOM     22  C   UNL     1       1.391  14.994 -31.368  0.00  0.00    +0.162 C 
ATOM     23  O   UNL     1       2.275  14.440 -31.976  0.00  0.00    -0.295 OA
ENDBRANCH   1  22
BRANCH   7  24
ATOM     24  O   UNL     1      -1.820  15.095 -35.236  0.00  0.00    -0.506 OA
ATOM     25  H   UNL     1      -2.475  14.888 -35.917  0.00  0.00    +0.292 HD
ENDBRANCH   7  24
BRANCH   4  26
ATOM     26  O   UNL     1       0.732  10.702 -33.152  0.00  0.00    -0.506 OA
ATOM     27  H   UNL     1       1.355  10.278 -33.759  0.00  0.00    +0.292 HD
ENDBRANCH   4  26
BRANCH   1  28
ATOM     28  O   UNL     1       0.450  14.067 -29.363  0.00  0.00    -0.381 OA
ATOM     29  H   UNL     1       0.041  13.279 -28.979  0.00  0.00    +0.211 HD
ENDBRANCH   1  28
BRANCH  19  30
ATOM     30  O   UNL     1      -2.445  15.668 -32.881  0.00  0.00    -0.343 OA
BRANCH  30  31
ATOM     31  C   UNL     1      -2.818  16.878 -32.216  0.00  0.00    +0.257 C 
ATOM     32  C   UNL     1      -3.210  17.931 -33.256  0.00  0.00    +0.118 C 
ATOM     33  C   UNL     1      -4.429  17.436 -34.039  0.00  0.00    +0.097 C 
ATOM     34  C   UNL     1      -5.566  17.137 -33.057  0.00  0.00    +0.191 C 
ATOM     35  C   UNL     1      -5.083  16.114 -32.025  0.00  0.00    +0.152 C 
ATOM     36  C   UNL     1      -6.194  15.856 -31.006  0.00  0.00    +0.041 C 
ATOM     37  O   UNL     1      -3.929  16.624 -31.355  0.00  0.00    -0.345 OA
BRANCH  33  38
ATOM     38  N   UNL     1      -4.857  18.471 -34.989  0.00  0.00    +0.223 N 
ATOM     39  H   UNL     1      -4.121  18.638 -35.658  0.00  0.00    +0.200 HD
ATOM     40  H   UNL     1      -5.055  19.325 -34.488  0.00  0.00    +0.200 HD
ATOM     41  H   UNL     1      -5.687  18.165 -35.471  0.00  0.00    +0.200 HD
ENDBRANCH  33  38
BRANCH  34  42
ATOM     42  O   UNL     1      -5.952  18.341 -32.392  0.00  0.00    -0.384 OA
ATOM     43  H   UNL     1      -5.853  18.308 -31.431  0.00  0.00    +0.210 HD
ENDBRANCH  34  42
ENDBRANCH  30  31
ENDBRANCH  19  30
TORSDOF 8
ENDMDL
MODEL 5
REMARK VINA RESULT:      -7.4     13.906     17.528
REMARK  Name = ZINC000003920266
REMARK  10 active torsions:
REMARK  status: ('A' for Active; 'I' for Inactive)
REMARK    1  A    between atoms: C_1  and  C_2
REMARK    2  A    between atoms: C_2  and  C_4
REMARK    3  A    between atoms: C_4  and  O_5
REMARK    4  A    between atoms: C_8  and  O_9
REMARK    5  A    between atoms: C_22  and  O_23
REMARK    6  A    between atoms: C_25  and  O_27
REMARK    7  A    between atoms: O_27  and  C_28
REMARK    8  A    between atoms: C_31  and  N_33
REMARK    9  A    between atoms: C_37  and  O_39
REMARK   10  A    between atoms: C_40  and  C_42
REMARK                            x       y       z     vdW  Elec       q    Type
REMARK                         _______ _______ _______ _____ _____    ______ ____
ROOT
ATOM      1  C   UNL     1       6.097  -1.705 -22.209  0.00  0.00    +0.130 C 
ATOM      2  C   UNL     1       4.672  -2.151 -21.891  0.00  0.00    +0.082 C 
ATOM      3  C   UNL     1       4.162  -1.463 -20.650  0.00  0.00    +0.007 A 
ATOM      4  C   UNL     1       2.776  -1.462 -20.437  0.00  0.00    +0.132 A 
ATOM      5  C   UNL     1       2.235  -0.851 -19.310  0.00  0.00    +0.078 A 
ATOM      6  C   UNL     1       3.094  -0.231 -18.378  0.00  0.00    +0.078 A 
ATOM      7  C   UNL     1       4.469  -0.236 -18.605  0.00  0.00    +0.134 A 
ATOM      8  C   UNL     1       2.529   0.413 -17.179  0.00  0.00    +0.198 C 
ATOM      9  C   UNL     1       1.122   0.140 -16.809  0.00  0.00    +0.033 A 
ATOM     10  C   UNL     1       0.641   0.488 -15.552  0.00  0.00    +0.012 A 
ATOM     11  C   UNL     1      -0.679   0.225 -15.224  0.00  0.00    +0.001 A 
ATOM     12  C   UNL     1      -1.521  -0.380 -16.138  0.00  0.00    +0.001 A 
ATOM     13  C   UNL     1      -1.057  -0.733 -17.394  0.00  0.00    +0.012 A 
ATOM     14  C   UNL     1       0.265  -0.476 -17.740  0.00  0.00    +0.033 A 
ATOM     15  O   UNL     1       3.210   1.158 -16.501  0.00  0.00    -0.286 OA
ATOM     16  C   UNL     1       0.780  -0.847 -19.077  0.00  0.00    +0.198 C 
ATOM     17  O   UNL     1       0.012  -1.144 -19.971  0.00  0.00    -0.286 OA
ATOM     18  C   UNL     1       4.997  -0.855 -19.747  0.00  0.00    +0.030 A 
ATOM     19  C   UNL     1       6.492  -0.808 -19.929  0.00  0.00    +0.158 C 
ATOM     20  C   UNL     1       6.945  -1.859 -20.941  0.00  0.00    +0.079 C 
ENDROOT
BRANCH   1  22
ATOM     21  C   UNL     1       7.379   0.520 -22.672  0.00  0.00    +0.089 C 
ATOM     22  C   UNL     1       6.092  -0.262 -22.643  0.00  0.00    +0.162 C 
ATOM     23  O   UNL     1       5.057   0.267 -22.969  0.00  0.00    -0.295 OA
ENDBRANCH   1  22
BRANCH   7  24
ATOM     24  O   UNL     1       5.301   0.359 -17.716  0.00  0.00    -0.506 OA
ATOM     25  H   UNL     1       5.876  -0.257 -17.242  0.00  0.00    +0.292 HD
ENDBRANCH   7  24
BRANCH   4  26
ATOM     26  O   UNL     1       1.957  -2.062 -21.337  0.00  0.00    -0.506 OA
ATOM     27  H   UNL     1       1.136  -1.580 -21.504  0.00  0.00    +0.292 HD
ENDBRANCH   4  26
BRANCH   1  28
ATOM     28  O   UNL     1       6.636  -2.520 -23.250  0.00  0.00    -0.381 OA
ATOM     29  H   UNL     1       5.978  -3.063 -23.705  0.00  0.00    +0.211 HD
ENDBRANCH   1  28
BRANCH  19  30
ATOM     30  O   UNL     1       7.128  -1.059 -18.674  0.00  0.00    -0.343 OA
BRANCH  30  31
ATOM     31  C   UNL     1       8.549  -1.190 -18.758  0.00  0.00    +0.257 C 
ATOM     32  C   UNL     1       9.212   0.037 -18.126  0.00  0.00    +0.118 C 
ATOM     33  C   UNL     1       8.837   0.103 -16.642  0.00  0.00    +0.097 C 
ATOM     34  C   UNL     1       9.261  -1.201 -15.961  0.00  0.00    +0.191 C 
ATOM     35  C   UNL     1       8.595  -2.380 -16.676  0.00  0.00    +0.152 C 
ATOM     36  C   UNL     1       9.060  -3.691 -16.038  0.00  0.00    +0.041 C 
ATOM     37  O   UNL     1       8.960  -2.365 -18.058  0.00  0.00    -0.345 OA
BRANCH  33  38
ATOM     38  N   UNL     1       9.528   1.236 -16.012  0.00  0.00    +0.223 N 
ATOM     39  H   UNL     1       8.976   2.073 -16.126  0.00  0.00    +0.200 HD
ATOM     40  H   UNL     1      10.429   1.366 -16.449  0.00  0.00    +0.200 HD
ATOM     41  H   UNL     1       9.656   1.049 -15.030  0.00  0.00    +0.200 HD
ENDBRANCH  33  38
BRANCH  34  42
ATOM     42  O   UNL     1      10.680  -1.338 -16.032  0.00  0.00    -0.384 OA
ATOM     43  H   UNL     1      11.114  -1.399 -15.170  0.00  0.00    +0.210 HD
ENDBRANCH  34  42
ENDBRANCH  30  31
ENDBRANCH  19  30
TORSDOF 8
ENDMDL
MODEL 6
REMARK VINA RESULT:      -7.4      2.609      7.080
REMARK  Name = ZINC000003920266
REMARK  10 active torsions:
REMARK  status: ('A' for Active; 'I' for Inactive)
REMARK    1  A    between atoms: C_1  and  C_2
REMARK    2  A    between atoms: C_2  and  C_4
REMARK    3  A    between atoms: C_4  and  O_5
REMARK    4  A    between atoms: C_8  and  O_9
REMARK    5  A    between atoms: C_22  and  O_23
REMARK    6  A    between atoms: C_25  and  O_27
REMARK    7  A    between atoms: O_27  and  C_28
REMARK    8  A    between atoms: C_31  and  N_33
REMARK    9  A    between atoms: C_37  and  O_39
REMARK   10  A    between atoms: C_40  and  C_42
REMARK                            x       y       z     vdW  Elec       q    Type
REMARK                         _______ _______ _______ _____ _____    ______ ____
ROOT
ATOM      1  C   UNL     1       1.581  -3.722 -34.334  0.00  0.00    +0.130 C 
ATOM      2  C   UNL     1       2.758  -4.185 -33.479  0.00  0.00    +0.082 C 
ATOM      3  C   UNL     1       4.058  -4.003 -34.221  0.00  0.00    +0.007 A 
ATOM      4  C   UNL     1       5.239  -4.016 -33.463  0.00  0.00    +0.132 A 
ATOM      5  C   UNL     1       6.476  -3.860 -34.082  0.00  0.00    +0.078 A 
ATOM      6  C   UNL     1       6.535  -3.690 -35.481  0.00  0.00    +0.078 A 
ATOM      7  C   UNL     1       5.353  -3.675 -36.219  0.00  0.00    +0.134 A 
ATOM      8  C   UNL     1       7.842  -3.529 -36.142  0.00  0.00    +0.198 C 
ATOM      9  C   UNL     1       9.075  -3.854 -35.391  0.00  0.00    +0.033 A 
ATOM     10  C   UNL     1      10.291  -3.993 -36.053  0.00  0.00    +0.012 A 
ATOM     11  C   UNL     1      11.434  -4.296 -35.333  0.00  0.00    +0.001 A 
ATOM     12  C   UNL     1      11.376  -4.460 -33.962  0.00  0.00    +0.001 A 
ATOM     13  C   UNL     1      10.174  -4.325 -33.288  0.00  0.00    +0.012 A 
ATOM     14  C   UNL     1       9.016  -4.020 -33.996  0.00  0.00    +0.033 A 
ATOM     15  O   UNL     1       7.907  -3.138 -37.292  0.00  0.00    -0.286 OA
ATOM     16  C   UNL     1       7.722  -3.873 -33.294  0.00  0.00    +0.198 C 
ATOM     17  O   UNL     1       7.687  -3.765 -32.084  0.00  0.00    -0.286 OA
ATOM     18  C   UNL     1       4.115  -3.832 -35.581  0.00  0.00    +0.030 A 
ATOM     19  C   UNL     1       2.882  -3.794 -36.445  0.00  0.00    +0.158 C 
ATOM     20  C   UNL     1       1.688  -4.394 -35.708  0.00  0.00    +0.079 C 
ENDROOT
BRANCH   1  22
ATOM     21  C   UNL     1       2.305  -1.375 -33.452  0.00  0.00    +0.089 C 
ATOM     22  C   UNL     1       1.629  -2.225 -34.497  0.00  0.00    +0.162 C 
ATOM     23  O   UNL     1       1.129  -1.707 -35.466  0.00  0.00    -0.295 OA
ENDBRANCH   1  22
BRANCH   7  24
ATOM     24  O   UNL     1       5.402  -3.511 -37.564  0.00  0.00    -0.506 OA
ATOM     25  H   UNL     1       4.534  -3.488 -37.988  0.00  0.00    +0.292 HD
ENDBRANCH   7  24
BRANCH   4  26
ATOM     26  O   UNL     1       5.173  -4.181 -32.118  0.00  0.00    -0.506 OA
ATOM     27  H   UNL     1       4.592  -4.901 -31.838  0.00  0.00    +0.292 HD
ENDBRANCH   4  26
BRANCH   1  28
ATOM     28  O   UNL     1       0.354  -4.100 -33.708  0.00  0.00    -0.381 OA
ATOM     29  H   UNL     1       0.192  -3.660 -32.862  0.00  0.00    +0.211 HD
ENDBRANCH   1  28
BRANCH  19  30
ATOM     30  O   UNL     1       3.121  -4.540 -37.640  0.00  0.00    -0.343 OA
BRANCH  30  31
ATOM     31  C   UNL     1       2.541  -5.846 -37.636  0.00  0.00    +0.257 C 
ATOM     32  C   UNL     1       1.859  -6.107 -38.983  0.00  0.00    +0.118 C 
ATOM     33  C   UNL     1       2.912  -6.069 -40.094  0.00  0.00    +0.097 C 
ATOM     34  C   UNL     1       4.002  -7.099 -39.786  0.00  0.00    +0.191 C 
ATOM     35  C   UNL     1       4.601  -6.800 -38.409  0.00  0.00    +0.152 C 
ATOM     36  C   UNL     1       5.650  -7.861 -38.068  0.00  0.00    +0.041 C 
ATOM     37  O   UNL     1       3.564  -6.820 -37.426  0.00  0.00    -0.345 OA
BRANCH  33  38
ATOM     38  N   UNL     1       2.279  -6.390 -41.380  0.00  0.00    +0.223 N 
ATOM     39  H   UNL     1       2.386  -7.374 -41.572  0.00  0.00    +0.200 HD
ATOM     40  H   UNL     1       2.720  -5.855 -42.115  0.00  0.00    +0.200 HD
ATOM     41  H   UNL     1       1.298  -6.159 -41.339  0.00  0.00    +0.200 HD
ENDBRANCH  33  38
BRANCH  34  42
ATOM     42  O   UNL     1       3.435  -8.410 -39.786  0.00  0.00    -0.384 OA
ATOM     43  H   UNL     1       3.622  -8.919 -40.587  0.00  0.00    +0.210 HD
ENDBRANCH  34  42
ENDBRANCH  30  31
ENDBRANCH  19  30
TORSDOF 8
ENDMDL
MODEL 7
REMARK VINA RESULT:      -7.3     16.433     19.174
REMARK  Name = ZINC000003920266
REMARK  10 active torsions:
REMARK  status: ('A' for Active; 'I' for Inactive)
REMARK    1  A    between atoms: C_1  and  C_2
REMARK    2  A    between atoms: C_2  and  C_4
REMARK    3  A    between atoms: C_4  and  O_5
REMARK    4  A    between atoms: C_8  and  O_9
REMARK    5  A    between atoms: C_22  and  O_23
REMARK    6  A    between atoms: C_25  and  O_27
REMARK    7  A    between atoms: O_27  and  C_28
REMARK    8  A    between atoms: C_31  and  N_33
REMARK    9  A    between atoms: C_37  and  O_39
REMARK   10  A    between atoms: C_40  and  C_42
REMARK                            x       y       z     vdW  Elec       q    Type
REMARK                         _______ _______ _______ _____ _____    ______ ____
ROOT
ATOM      1  C   UNL     1      -3.683  15.338 -39.893  0.00  0.00    +0.130 C 
ATOM      2  C   UNL     1      -3.702  15.775 -38.430  0.00  0.00    +0.082 C 
ATOM      3  C   UNL     1      -2.772  14.920 -37.607  0.00  0.00    +0.007 A 
ATOM      4  C   UNL     1      -2.384  15.414 -36.353  0.00  0.00    +0.132 A 
ATOM      5  C   UNL     1      -1.532  14.676 -35.536  0.00  0.00    +0.078 A 
ATOM      6  C   UNL     1      -1.062  13.422 -35.979  0.00  0.00    +0.078 A 
ATOM      7  C   UNL     1      -1.452  12.947 -37.229  0.00  0.00    +0.134 A 
ATOM      8  C   UNL     1      -0.164  12.633 -35.117  0.00  0.00    +0.198 C 
ATOM      9  C   UNL     1      -0.016  13.009 -33.694  0.00  0.00    +0.033 A 
ATOM     10  C   UNL     1       0.582  12.138 -32.789  0.00  0.00    +0.012 A 
ATOM     11  C   UNL     1       0.713  12.508 -31.461  0.00  0.00    +0.001 A 
ATOM     12  C   UNL     1       0.253  13.737 -31.028  0.00  0.00    +0.001 A 
ATOM     13  C   UNL     1      -0.344  14.616 -31.915  0.00  0.00    +0.012 A 
ATOM     14  C   UNL     1      -0.483  14.261 -33.253  0.00  0.00    +0.033 A 
ATOM     15  O   UNL     1       0.446  11.683 -35.569  0.00  0.00    -0.286 OA
ATOM     16  C   UNL     1      -1.120  15.186 -34.216  0.00  0.00    +0.198 C 
ATOM     17  O   UNL     1      -1.302  16.351 -33.922  0.00  0.00    -0.286 OA
ATOM     18  C   UNL     1      -2.309  13.704 -38.040  0.00  0.00    +0.030 A 
ATOM     19  C   UNL     1      -2.677  13.128 -39.383  0.00  0.00    +0.158 C 
ATOM     20  C   UNL     1      -3.914  13.824 -39.947  0.00  0.00    +0.079 C 
ENDROOT
BRANCH   1  22
ATOM     21  C   UNL     1      -1.915  14.997 -41.782  0.00  0.00    +0.089 C 
ATOM     22  C   UNL     1      -2.346  15.669 -40.504  0.00  0.00    +0.162 C 
ATOM     23  O   UNL     1      -1.621  16.475 -39.971  0.00  0.00    -0.295 OA
ENDBRANCH   1  22
BRANCH   7  24
ATOM     24  O   UNL     1      -1.002  11.744 -37.663  0.00  0.00    -0.506 OA
ATOM     25  H   UNL     1      -1.690  11.183 -38.047  0.00  0.00    +0.292 HD
ENDBRANCH   7  24
BRANCH   4  26
ATOM     26  O   UNL     1      -2.843  16.620 -35.933  0.00  0.00    -0.506 OA
ATOM     27  H   UNL     1      -3.616  16.568 -35.355  0.00  0.00    +0.292 HD
ENDBRANCH   4  26
BRANCH   1  28
ATOM     28  O   UNL     1      -4.720  16.010 -40.609  0.00  0.00    -0.381 OA
ATOM     29  H   UNL     1      -5.613  15.763 -40.331  0.00  0.00    +0.211 HD
ENDBRANCH   1  28
BRANCH  19  30
ATOM     30  O   UNL     1      -2.947  11.732 -39.240  0.00  0.00    -0.343 OA
BRANCH  30  31
ATOM     31  C   UNL     1      -2.558  10.946 -40.368  0.00  0.00    +0.257 C 
ATOM     32  C   UNL     1      -1.727   9.750 -39.894  0.00  0.00    +0.118 C 
ATOM     33  C   UNL     1      -2.588   8.867 -38.986  0.00  0.00    +0.097 C 
ATOM     34  C   UNL     1      -3.842   8.436 -39.752  0.00  0.00    +0.191 C 
ATOM     35  C   UNL     1      -4.592   9.683 -40.231  0.00  0.00    +0.152 C 
ATOM     36  C   UNL     1      -5.815   9.259 -41.048  0.00  0.00    +0.041 C 
ATOM     37  O   UNL     1      -3.725  10.475 -41.044  0.00  0.00    -0.345 OA
BRANCH  33  38
ATOM     38  N   UNL     1      -1.822   7.680 -38.586  0.00  0.00    +0.223 N 
ATOM     39  H   UNL     1      -2.139   6.881 -39.114  0.00  0.00    +0.200 HD
ATOM     40  H   UNL     1      -1.958   7.507 -37.601  0.00  0.00    +0.200 HD
ATOM     41  H   UNL     1      -0.842   7.835 -38.767  0.00  0.00    +0.200 HD
ENDBRANCH  33  38
BRANCH  34  42
ATOM     42  O   UNL     1      -3.465   7.643 -40.878  0.00  0.00    -0.384 OA
ATOM     43  H   UNL     1      -3.001   6.826 -40.647  0.00  0.00    +0.210 HD
ENDBRANCH  34  42
ENDBRANCH  30  31
ENDBRANCH  19  30
TORSDOF 8
ENDMDL
MODEL 8
REMARK VINA RESULT:      -7.1     19.901     22.626
REMARK  Name = ZINC000003920266
REMARK  10 active torsions:
REMARK  status: ('A' for Active; 'I' for Inactive)
REMARK    1  A    between atoms: C_1  and  C_2
REMARK    2  A    between atoms: C_2  and  C_4
REMARK    3  A    between atoms: C_4  and  O_5
REMARK    4  A    between atoms: C_8  and  O_9
REMARK    5  A    between atoms: C_22  and  O_23
REMARK    6  A    between atoms: C_25  and  O_27
REMARK    7  A    between atoms: O_27  and  C_28
REMARK    8  A    between atoms: C_31  and  N_33
REMARK    9  A    between atoms: C_37  and  O_39
REMARK   10  A    between atoms: C_40  and  C_42
REMARK                            x       y       z     vdW  Elec       q    Type
REMARK                         _______ _______ _______ _____ _____    ______ ____
ROOT
ATOM      1  C   UNL     1       1.526  21.364 -30.534  0.00  0.00    +0.130 C 
ATOM      2  C   UNL     1       1.035  20.501 -31.695  0.00  0.00    +0.082 C 
ATOM      3  C   UNL     1       1.166  19.037 -31.362  0.00  0.00    +0.007 A 
ATOM      4  C   UNL     1       0.425  18.132 -32.137  0.00  0.00    +0.132 A 
ATOM      5  C   UNL     1       0.502  16.764 -31.891  0.00  0.00    +0.078 A 
ATOM      6  C   UNL     1       1.334  16.292 -30.854  0.00  0.00    +0.078 A 
ATOM      7  C   UNL     1       2.060  17.203 -30.090  0.00  0.00    +0.134 A 
ATOM      8  C   UNL     1       1.423  14.844 -30.592  0.00  0.00    +0.198 C 
ATOM      9  C   UNL     1       0.895  13.895 -31.596  0.00  0.00    +0.033 A 
ATOM     10  C   UNL     1       1.213  12.543 -31.528  0.00  0.00    +0.012 A 
ATOM     11  C   UNL     1       0.708  11.670 -32.477  0.00  0.00    +0.001 A 
ATOM     12  C   UNL     1      -0.109  12.132 -33.491  0.00  0.00    +0.001 A 
ATOM     13  C   UNL     1      -0.434  13.475 -33.574  0.00  0.00    +0.012 A 
ATOM     14  C   UNL     1       0.064  14.367 -32.629  0.00  0.00    +0.033 A 
ATOM     15  O   UNL     1       1.927  14.435 -29.563  0.00  0.00    -0.286 OA
ATOM     16  C   UNL     1      -0.272  15.806 -32.701  0.00  0.00    +0.198 C 
ATOM     17  O   UNL     1      -1.173  16.193 -33.419  0.00  0.00    -0.286 OA
ATOM     18  C   UNL     1       1.970  18.578 -30.350  0.00  0.00    +0.030 A 
ATOM     19  C   UNL     1       2.776  19.502 -29.474  0.00  0.00    +0.158 C 
ATOM     20  C   UNL     1       2.921  20.874 -30.126  0.00  0.00    +0.079 C 
ENDROOT
BRANCH   1  22
ATOM     21  C   UNL     1       1.050  21.574 -27.977  0.00  0.00    +0.089 C 
ATOM     22  C   UNL     1       0.582  21.232 -29.368  0.00  0.00    +0.162 C 
ATOM     23  O   UNL     1      -0.551  20.855 -29.548  0.00  0.00    -0.295 OA
ENDBRANCH   1  22
BRANCH   7  24
ATOM     24  O   UNL     1       2.860  16.758 -29.091  0.00  0.00    -0.506 OA
ATOM     25  H   UNL     1       3.072  15.816 -29.147  0.00  0.00    +0.292 HD
ENDBRANCH   7  24
BRANCH   4  26
ATOM     26  O   UNL     1      -0.371  18.594 -33.134  0.00  0.00    -0.506 OA
ATOM     27  H   UNL     1      -1.234  18.160 -33.181  0.00  0.00    +0.292 HD
ENDBRANCH   4  26
BRANCH   1  28
ATOM     28  O   UNL     1       1.598  22.730 -30.946  0.00  0.00    -0.381 OA
ATOM     29  H   UNL     1       2.384  22.943 -31.468  0.00  0.00    +0.211 HD
ENDBRANCH   1  28
BRANCH  19  30
ATOM     30  O   UNL     1       4.074  18.940 -29.266  0.00  0.00    -0.343 OA
BRANCH  30  31
ATOM     31  C   UNL     1       5.071  19.898 -28.902  0.00  0.00    +0.257 C 
ATOM     32  C   UNL     1       4.744  20.474 -27.521  0.00  0.00    +0.118 C 
ATOM     33  C   UNL     1       4.782  19.347 -26.485  0.00  0.00    +0.097 C 
ATOM     34  C   UNL     1       6.158  18.677 -26.524  0.00  0.00    +0.191 C 
ATOM     35  C   UNL     1       6.429  18.170 -27.944  0.00  0.00    +0.152 C 
ATOM     36  C   UNL     1       7.828  17.551 -28.005  0.00  0.00    +0.041 C 
ATOM     37  O   UNL     1       6.349  19.262 -28.861  0.00  0.00    -0.345 OA
BRANCH  33  38
ATOM     38  N   UNL     1       4.542  19.904 -25.147  0.00  0.00    +0.223 N 
ATOM     39  H   UNL     1       4.617  19.170 -24.458  0.00  0.00    +0.200 HD
ATOM     40  H   UNL     1       3.616  20.305 -25.110  0.00  0.00    +0.200 HD
ATOM     41  H   UNL     1       5.226  20.619 -24.952  0.00  0.00    +0.200 HD
ENDBRANCH  33  38
BRANCH  34  42
ATOM     42  O   UNL     1       7.161  19.624 -26.155  0.00  0.00    -0.384 OA
ATOM     43  H   UNL     1       7.453  20.192 -26.882  0.00  0.00    +0.210 HD
ENDBRANCH  34  42
ENDBRANCH  30  31
ENDBRANCH  19  30
TORSDOF 8
ENDMDL
MODEL 9
REMARK VINA RESULT:      -7.1      2.826      7.033
REMARK  Name = ZINC000003920266
REMARK  10 active torsions:
REMARK  status: ('A' for Active; 'I' for Inactive)
REMARK    1  A    between atoms: C_1  and  C_2
REMARK    2  A    between atoms: C_2  and  C_4
REMARK    3  A    between atoms: C_4  and  O_5
REMARK    4  A    between atoms: C_8  and  O_9
REMARK    5  A    between atoms: C_22  and  O_23
REMARK    6  A    between atoms: C_25  and  O_27
REMARK    7  A    between atoms: O_27  and  C_28
REMARK    8  A    between atoms: C_31  and  N_33
REMARK    9  A    between atoms: C_37  and  O_39
REMARK   10  A    between atoms: C_40  and  C_42
REMARK                            x       y       z     vdW  Elec       q    Type
REMARK                         _______ _______ _______ _____ _____    ______ ____
ROOT
ATOM      1  C   UNL     1       5.794  -2.770 -34.188  0.00  0.00    +0.130 C 
ATOM      2  C   UNL     1       5.119  -1.770 -33.251  0.00  0.00    +0.082 C 
ATOM      3  C   UNL     1       4.086  -2.457 -32.395  0.00  0.00    +0.007 A 
ATOM      4  C   UNL     1       3.654  -1.785 -31.242  0.00  0.00    +0.132 A 
ATOM      5  C   UNL     1       2.697  -2.357 -30.409  0.00  0.00    +0.078 A 
ATOM      6  C   UNL     1       2.160  -3.620 -30.734  0.00  0.00    +0.078 A 
ATOM      7  C   UNL     1       2.601  -4.277 -31.881  0.00  0.00    +0.134 A 
ATOM      8  C   UNL     1       1.142  -4.229 -29.858  0.00  0.00    +0.198 C 
ATOM      9  C   UNL     1       0.476  -3.391 -28.837  0.00  0.00    +0.033 A 
ATOM     10  C   UNL     1      -0.674  -3.837 -28.195  0.00  0.00    +0.012 A 
ATOM     11  C   UNL     1      -1.283  -3.040 -27.241  0.00  0.00    +0.001 A 
ATOM     12  C   UNL     1      -0.755  -1.803 -26.921  0.00  0.00    +0.001 A 
ATOM     13  C   UNL     1       0.389  -1.344 -27.550  0.00  0.00    +0.012 A 
ATOM     14  C   UNL     1       1.014  -2.132 -28.511  0.00  0.00    +0.033 A 
ATOM     15  O   UNL     1       0.851  -5.403 -29.976  0.00  0.00    -0.286 OA
ATOM     16  C   UNL     1       2.237  -1.658 -29.195  0.00  0.00    +0.198 C 
ATOM     17  O   UNL     1       2.854  -0.704 -28.763  0.00  0.00    -0.286 OA
ATOM     18  C   UNL     1       3.568  -3.689 -32.708  0.00  0.00    +0.030 A 
ATOM     19  C   UNL     1       4.003  -4.466 -33.924  0.00  0.00    +0.158 C 
ATOM     20  C   UNL     1       4.701  -3.551 -34.927  0.00  0.00    +0.079 C 
ENDROOT
BRANCH   1  22
ATOM     21  C   UNL     1       7.070  -5.037 -33.989  0.00  0.00    +0.089 C 
ATOM     22  C   UNL     1       6.645  -3.721 -33.389  0.00  0.00    +0.162 C 
ATOM     23  O   UNL     1       6.989  -3.429 -32.269  0.00  0.00    -0.295 OA
ENDBRANCH   1  22
BRANCH   7  24
ATOM     24  O   UNL     1       2.091  -5.493 -32.199  0.00  0.00    -0.506 OA
ATOM     25  H   UNL     1       2.658  -6.015 -32.782  0.00  0.00    +0.292 HD
ENDBRANCH   7  24
BRANCH   4  26
ATOM     26  O   UNL     1       4.175  -0.570 -30.937  0.00  0.00    -0.506 OA
ATOM     27  H   UNL     1       4.636  -0.144 -31.672  0.00  0.00    +0.292 HD
ENDBRANCH   4  26
BRANCH   1  28
ATOM     28  O   UNL     1       6.607  -2.071 -35.132  0.00  0.00    -0.381 OA
ATOM     29  H   UNL     1       6.457  -1.115 -35.149  0.00  0.00    +0.211 HD
ENDBRANCH   1  28
BRANCH  19  30
ATOM     30  O   UNL     1       2.856  -5.054 -34.542  0.00  0.00    -0.343 OA
BRANCH  30  31
ATOM     31  C   UNL     1       2.676  -4.679 -35.910  0.00  0.00    +0.257 C 
ATOM     32  C   UNL     1       1.865  -5.758 -36.632  0.00  0.00    +0.118 C 
ATOM     33  C   UNL     1       0.477  -5.857 -35.991  0.00  0.00    +0.097 C 
ATOM     34  C   UNL     1      -0.200  -4.485 -36.048  0.00  0.00    +0.191 C 
ATOM     35  C   UNL     1       0.692  -3.455 -35.348  0.00  0.00    +0.152 C 
ATOM     36  C   UNL     1       0.049  -2.070 -35.454  0.00  0.00    +0.041 C 
ATOM     37  O   UNL     1       1.976  -3.436 -35.974  0.00  0.00    -0.345 OA
BRANCH  33  38
ATOM     38  N   UNL     1      -0.333  -6.839 -36.724  0.00  0.00    +0.223 N 
ATOM     39  H   UNL     1      -1.189  -6.405 -37.033  0.00  0.00    +0.200 HD
ATOM     40  H   UNL     1      -0.550  -7.616 -36.117  0.00  0.00    +0.200 HD
ATOM     41  H   UNL     1       0.184  -7.172 -37.524  0.00  0.00    +0.200 HD
ENDBRANCH  33  38
BRANCH  34  42
ATOM     42  O   UNL     1      -0.391  -4.104 -37.412  0.00  0.00    -0.384 OA
ATOM     43  H   UNL     1       0.294  -4.431 -38.011  0.00  0.00    +0.210 HD
ENDBRANCH  34  42
ENDBRANCH  30  31
ENDBRANCH  19  30
TORSDOF 8
ENDMDL
