@<TRIPOS>MOLECULE
ZINC000022448696
92    96    1     0     0
SMALL
USER_CHARGES
@<TRIPOS>ATOM
1      C1      3.2044   -0.8357    1.9910 C.3      1 ZINC000022448696   -0.1600
2      C2      2.7721   -2.1595    1.3573 C.3      1 ZINC000022448696    0.1700
3      C3      3.9288   -3.1587    1.4244 C.3      1 ZINC000022448696   -0.1600
4      C4      1.5690   -2.7203    2.1182 C.3      1 ZINC000022448696   -0.1600
5      N5      2.4026   -1.9334   -0.0422 N.am     1 ZINC000022448696   -0.7200
6      C6      3.3103   -1.4393   -0.9074 C.2      1 ZINC000022448696    0.5200
7      O7      4.4329   -1.1819   -0.5273 O.2      1 ZINC000022448696   -0.5100
8      C8      2.9302   -1.2067   -2.3470 C.3      1 ZINC000022448696    0.0700
9      H9      1.9185   -0.8040   -2.3955 H        1 ZINC000022448696    0.0700
10     C10     2.9897   -2.5313   -3.1113 C.3      1 ZINC000022448696    0.0700
11     N11     2.6567   -2.2948   -4.5229 N.3      1 ZINC000022448696   -0.5300
12     C12     2.6292   -3.5559   -5.2758 C.3      1 ZINC000022448696    0.1000
13     C13     2.5300   -3.2589   -6.7499 C.ar     1 ZINC000022448696   -0.1400
14     C14     1.2909   -3.1345   -7.3589 C.ar     1 ZINC000022448696   -0.0600
15     C15     1.2479   -2.8603   -8.7176 C.ar     1 ZINC000022448696   -0.1700
16     C16     2.4330   -2.7212   -9.4143 C.ar     1 ZINC000022448696    0.1000
17     N17     3.5943   -2.8462   -8.8018 N.ar     1 ZINC000022448696   -0.4800
18     C18     3.6733   -3.1014   -7.5106 C.ar     1 ZINC000022448696    0.1100
19     C19     3.5946   -1.3397   -5.1294 C.3      1 ZINC000022448696    0.0500
20     C20     3.5351   -0.0151   -4.3651 C.3      1 ZINC000022448696    0.0500
21     N21     3.8678   -0.2512   -2.9533 N.3      1 ZINC000022448696   -0.5100
22     C22     3.8951    1.0101   -2.2008 C.3      1 ZINC000022448696    0.0200
23     C23     5.2043    1.7477   -2.4891 C.3      1 ZINC000022448696    0.1200
24     H24     6.0467    1.0916   -2.2699 H        1 ZINC000022448696    0.1100
25     O25     5.2430    2.1290   -3.8657 O.3      1 ZINC000022448696   -0.5500
26     C26     5.2894    2.9977   -1.6110 C.3      1 ZINC000022448696   -0.1300
27     C27     6.6191    3.7103   -1.8658 C.3      1 ZINC000022448696   -0.0900
28     H28     7.4408    3.0089   -1.7210 H        1 ZINC000022448696    0.0900
29     C29     6.6473    4.2396   -3.3011 C.3      1 ZINC000022448696   -0.0900
30     C30     7.9423    4.9720   -3.5411 C.ar     1 ZINC000022448696   -0.0900
31     C31     7.9963    6.3458   -3.3971 C.ar     1 ZINC000022448696   -0.1100
32     C32     9.1841    7.0177   -3.6173 C.ar     1 ZINC000022448696   -0.1100
33     C33    10.3181    6.3157   -3.9810 C.ar     1 ZINC000022448696   -0.1100
34     C34    10.2643    4.9418   -4.1240 C.ar     1 ZINC000022448696   -0.1200
35     C35     9.0775    4.2695   -3.8997 C.ar     1 ZINC000022448696   -0.1100
36     C36     6.7651    4.8607   -0.9033 C.2      1 ZINC000022448696    0.5200
37     O37     5.7809    5.3550   -0.3954 O.2      1 ZINC000022448696   -0.5500
38     N38     7.9893    5.3401   -0.6068 N.am     1 ZINC000022448696   -0.7000
39     C39     8.1439    6.3634    0.4301 C.3      1 ZINC000022448696    0.1900
40     H40     7.2692    7.0133    0.4527 H        1 ZINC000022448696    0.1100
41     C41     8.3509    5.7142    1.7818 C.ar     1 ZINC000022448696   -0.1100
42     C42     7.7036    4.6412    2.3704 C.ar     1 ZINC000022448696   -0.0900
43     C43     8.0672    4.2181    3.6343 C.ar     1 ZINC000022448696   -0.1200
44     C44     9.0807    4.8672    4.3139 C.ar     1 ZINC000022448696   -0.1100
45     C45     9.7280    5.9377    3.7280 C.ar     1 ZINC000022448696   -0.1100
46     C46     9.3647    6.3635    2.4617 C.ar     1 ZINC000022448696   -0.0900
47     C47     9.9083    7.4928    1.6129 C.3      1 ZINC000022448696   -0.1100
48     C48     9.4210    7.1927    0.1780 C.3      1 ZINC000022448696    0.1000
49     H49     9.1883    8.1156   -0.3531 H        1 ZINC000022448696    0.0800
50     O50    10.3922    6.4277   -0.5386 O.3      1 ZINC000022448696   -0.5500
51     H51     4.0615   -0.4362    1.4489 H        1 ZINC000022448696    0.0800
52     H52     2.3803   -0.1238    1.9432 H        1 ZINC000022448696    0.0500
53     H53     3.4793   -1.0040    3.0323 H        1 ZINC000022448696    0.0600
54     H54     4.2037   -3.3270    2.4656 H        1 ZINC000022448696    0.0600
55     H55     3.6208   -4.1019    0.9729 H        1 ZINC000022448696    0.0500
56     H56     4.7859   -2.7592    0.8823 H        1 ZINC000022448696    0.0800
57     H57     0.7449   -2.0084    2.0704 H        1 ZINC000022448696    0.0600
58     H58     1.2610   -3.6634    1.6668 H        1 ZINC000022448696    0.0600
59     H59     1.8439   -2.8885    3.1595 H        1 ZINC000022448696    0.0700
60     H60     1.5048   -2.1392   -0.3461 H        1 ZINC000022448696    0.4000
61     H61     3.9945   -2.9477   -3.0395 H        1 ZINC000022448696    0.0500
62     H62     2.2739   -3.2318   -2.6812 H        1 ZINC000022448696    0.0800
63     H63     3.5430   -4.1166   -5.0788 H        1 ZINC000022448696    0.0500
64     H64     1.7669   -4.1458   -4.9651 H        1 ZINC000022448696    0.0900
65     H65     0.3807   -3.2487   -6.7889 H        1 ZINC000022448696    0.1400
66     H66     0.3000   -2.7571   -9.2249 H        1 ZINC000022448696    0.1400
67     H67     2.4081   -2.5080  -10.4728 H        1 ZINC000022448696    0.1600
68     H68     4.6424   -3.1971   -7.0437 H        1 ZINC000022448696    0.1500
69     H69     4.6062   -1.7426   -5.0806 H        1 ZINC000022448696    0.0500
70     H70     3.3197   -1.1715   -6.1707 H        1 ZINC000022448696    0.0800
71     H71     4.2509    0.6854   -4.7952 H        1 ZINC000022448696    0.1100
72     H72     2.5303    0.4013   -4.4369 H        1 ZINC000022448696    0.0400
73     H73     3.0532    1.6325   -2.5040 H        1 ZINC000022448696    0.0400
74     H74     3.8247    0.7983   -1.1339 H        1 ZINC000022448696    0.0900
75     H75     4.5211    2.7146   -4.1321 H        1 ZINC000022448696    0.3700
76     H76     4.4653    3.6687   -1.8533 H        1 ZINC000022448696    0.0800
77     H77     5.2269    2.7096   -0.5616 H        1 ZINC000022448696    0.0800
78     H78     6.5673    3.4051   -3.9977 H        1 ZINC000022448696    0.1300
79     H79     5.8106    4.9214   -3.4533 H        1 ZINC000022448696    0.0700
80     H80     7.1103    6.8943   -3.1130 H        1 ZINC000022448696    0.1100
81     H81     9.2262    8.0911   -3.5055 H        1 ZINC000022448696    0.1100
82     H82    11.2460    6.8407   -4.1537 H        1 ZINC000022448696    0.1200
83     H83    11.1502    4.3934   -4.4085 H        1 ZINC000022448696    0.1200
84     H84     9.0354    3.1961   -4.0115 H        1 ZINC000022448696    0.1200
85     H85     8.7681    5.0077   -1.0801 H        1 ZINC000022448696    0.4100
86     H86     6.9115    4.1335    1.8400 H        1 ZINC000022448696    0.1200
87     H87     7.5598    3.3812    4.0909 H        1 ZINC000022448696    0.1200
88     H88     9.3660    4.5379    5.3021 H        1 ZINC000022448696    0.1200
89     H89    10.5199    6.4444    4.2597 H        1 ZINC000022448696    0.1200
90     H90     9.5096    8.4482    1.9541 H        1 ZINC000022448696    0.0900
91     H91    10.9976    7.5023    1.6486 H        1 ZINC000022448696    0.0900
92     H92    11.2430    6.8744   -0.6467 H        1 ZINC000022448696    0.3800
@<TRIPOS>BOND
1     1     2     1
2     1     51    1
3     1     52    1
4     1     53    1
5     2     3     1
6     2     4     1
7     2     5     1
8     3     54    1
9     3     55    1
10    3     56    1
11    4     57    1
12    4     58    1
13    4     59    1
14    5     6     am
15    5     60    1
16    6     7     2
17    6     8     1
18    8     9     1
19    8     21    1
20    8     10    1
21    10    11    1
22    10    61    1
23    10    62    1
24    11    12    1
25    11    19    1
26    12    13    1
27    12    63    1
28    12    64    1
29    13    18    ar
30    13    14    ar
31    14    15    ar
32    14    65    1
33    15    16    ar
34    15    66    1
35    16    17    ar
36    16    67    1
37    17    18    ar
38    18    68    1
39    19    20    1
40    19    69    1
41    19    70    1
42    20    21    1
43    20    71    1
44    20    72    1
45    21    22    1
46    22    23    1
47    22    73    1
48    22    74    1
49    23    24    1
50    23    25    1
51    23    26    1
52    25    75    1
53    26    27    1
54    26    76    1
55    26    77    1
56    27    28    1
57    27    29    1
58    27    36    1
59    29    30    1
60    29    78    1
61    29    79    1
62    30    35    ar
63    30    31    ar
64    31    32    ar
65    31    80    1
66    32    33    ar
67    32    81    1
68    33    34    ar
69    33    82    1
70    34    35    ar
71    34    83    1
72    35    84    1
73    36    37    2
74    36    38    am
75    38    39    1
76    38    85    1
77    39    40    1
78    39    48    1
79    39    41    1
80    41    46    ar
81    41    42    ar
82    42    43    ar
83    42    86    1
84    43    44    ar
85    43    87    1
86    44    45    ar
87    44    88    1
88    45    46    ar
89    45    89    1
90    46    47    1
91    47    48    1
92    47    90    1
93    47    91    1
94    48    49    1
95    48    50    1
96    50    92    1
@<TRIPOS>SUBSTRUCTURE
1   ZINC000022448696 1     RESIDUE    1   A     ZIN   1
