REMARK  Name = ZINC000022448696
REMARK  17 active torsions:
REMARK  status: ('A' for Active; 'I' for Inactive)
REMARK    1  A    between atoms: C1_1  and  C2_2
REMARK    2  A    between atoms: C2_2  and  C3_3
REMARK    3  A    between atoms: C2_2  and  C4_4
REMARK    4  A    between atoms: C2_2  and  N5_5
REMARK    5  A    between atoms: C6_6  and  C8_8
REMARK    6  A    between atoms: N11_11  and  C12_12
REMARK    7  A    between atoms: C12_12  and  C13_13
REMARK    8  A    between atoms: N21_21  and  C22_22
REMARK    9  A    between atoms: C22_22  and  C23_23
REMARK   10  A    between atoms: C23_23  and  O25_25
REMARK   11  A    between atoms: C23_23  and  C26_26
REMARK   12  A    between atoms: C26_26  and  C27_27
REMARK   13  A    between atoms: C27_27  and  C29_29
REMARK   14  A    between atoms: C27_27  and  C36_36
REMARK   15  A    between atoms: C29_29  and  C30_30
REMARK   16  A    between atoms: N38_38  and  C39_39
REMARK   17  A    between atoms: C48_48  and  O50_50
REMARK                            x       y       z     vdW  Elec       q    Type
REMARK                         _______ _______ _______ _____ _____    ______ ____
ROOT
ATOM      1  C   UNL     1       5.204   1.748  -2.489  0.00  0.00    +0.230 C 
ENDROOT
BRANCH   1   2
ATOM      2  O   UNL     1       5.243   2.129  -3.866  0.00  0.00    -0.550 OA
ATOM      3  H   UNL     1       4.521   2.715  -4.132  0.00  0.00    +0.370 HD
ENDBRANCH   1   2
BRANCH   1   4
ATOM      4  C   UNL     1       3.895   1.010  -2.201  0.00  0.00    +0.150 C 
BRANCH   4  10
ATOM      5  C   UNL     1       2.930  -1.207  -2.347  0.00  0.00    +0.140 C 
ATOM      6  C   UNL     1       2.990  -2.531  -3.111  0.00  0.00    +0.200 C 
ATOM      7  N   UNL     1       2.657  -2.295  -4.523  0.00  0.00    -0.530 NA
ATOM      8  C   UNL     1       3.595  -1.340  -5.129  0.00  0.00    +0.180 C 
ATOM      9  C   UNL     1       3.535  -0.015  -4.365  0.00  0.00    +0.200 C 
ATOM     10  N   UNL     1       3.868  -0.251  -2.953  0.00  0.00    -0.510 NA
BRANCH   5  13
ATOM     11  N   UNL     1       2.403  -1.933  -0.042  0.00  0.00    -0.720 N 
ATOM     12  H   UNL     1       1.505  -2.139  -0.346  0.00  0.00    +0.400 HD
ATOM     13  C   UNL     1       3.310  -1.439  -0.907  0.00  0.00    +0.520 C 
ATOM     14  O   UNL     1       4.433  -1.182  -0.527  0.00  0.00    -0.510 OA
BRANCH  11  16
ATOM     15  C   UNL     1       3.204  -0.836   1.991  0.00  0.00    +0.030 C 
ATOM     16  C   UNL     1       2.772  -2.159   1.357  0.00  0.00    +0.170 C 
ATOM     17  C   UNL     1       1.569  -2.720   2.118  0.00  0.00    +0.030 C 
ATOM     18  C   UNL     1       3.929  -3.159   1.424  0.00  0.00    +0.030 C 
ENDBRANCH  11  16
ENDBRANCH   5  13
BRANCH   7  19
ATOM     19  C   UNL     1       2.629  -3.556  -5.276  0.00  0.00    +0.240 C 
BRANCH  19  20
ATOM     20  C   UNL     1       2.530  -3.259  -6.750  0.00  0.00    -0.140 A 
ATOM     21  C   UNL     1       1.291  -3.135  -7.359  0.00  0.00    +0.080 A 
ATOM     22  C   UNL     1       1.248  -2.860  -8.718  0.00  0.00    -0.030 A 
ATOM     23  C   UNL     1       2.433  -2.721  -9.414  0.00  0.00    +0.260 A 
ATOM     24  N   UNL     1       3.594  -2.846  -8.802  0.00  0.00    -0.480 NA
ATOM     25  C   UNL     1       3.673  -3.101  -7.511  0.00  0.00    +0.260 A 
ENDBRANCH  19  20
ENDBRANCH   7  19
ENDBRANCH   4  10
ENDBRANCH   1   4
BRANCH   1  26
ATOM     26  C   UNL     1       5.289   2.998  -1.611  0.00  0.00    +0.030 C 
BRANCH  26  27
ATOM     27  C   UNL     1       6.619   3.710  -1.866  0.00  0.00    +0.000 C 
BRANCH  27  28
ATOM     28  C   UNL     1       6.765   4.861  -0.903  0.00  0.00    +0.520 C 
ATOM     29  N   UNL     1       7.989   5.340  -0.607  0.00  0.00    -0.700 N 
ATOM     30  H   UNL     1       8.768   5.008  -1.080  0.00  0.00    +0.410 HD
ATOM     31  O   UNL     1       5.781   5.355  -0.395  0.00  0.00    -0.550 OA
BRANCH  29  32
ATOM     32  C   UNL     1       8.144   6.363   0.430  0.00  0.00    +0.300 C 
ATOM     33  C   UNL     1       8.351   5.714   1.782  0.00  0.00    -0.110 A 
ATOM     34  C   UNL     1       7.704   4.641   2.370  0.00  0.00    +0.030 A 
ATOM     35  C   UNL     1       8.067   4.218   3.634  0.00  0.00    +0.000 A 
ATOM     36  C   UNL     1       9.081   4.867   4.314  0.00  0.00    +0.010 A 
ATOM     37  C   UNL     1       9.728   5.938   3.728  0.00  0.00    +0.010 A 
ATOM     38  C   UNL     1       9.365   6.364   2.462  0.00  0.00    -0.090 A 
ATOM     39  C   UNL     1       9.908   7.493   1.613  0.00  0.00    +0.070 C 
ATOM     40  C   UNL     1       9.421   7.193   0.178  0.00  0.00    +0.180 C 
BRANCH  40  41
ATOM     41  O   UNL     1      10.392   6.428  -0.539  0.00  0.00    -0.550 OA
ATOM     42  H   UNL     1      11.243   6.874  -0.647  0.00  0.00    +0.380 HD
ENDBRANCH  40  41
ENDBRANCH  29  32
ENDBRANCH  27  28
BRANCH  27  43
ATOM     43  C   UNL     1       6.647   4.240  -3.301  0.00  0.00    +0.110 C 
BRANCH  43  44
ATOM     44  C   UNL     1       7.942   4.972  -3.541  0.00  0.00    -0.090 A 
ATOM     45  C   UNL     1       7.996   6.346  -3.397  0.00  0.00    +0.000 A 
ATOM     46  C   UNL     1       9.184   7.018  -3.617  0.00  0.00    +0.000 A 
ATOM     47  C   UNL     1      10.318   6.316  -3.981  0.00  0.00    +0.010 A 
ATOM     48  C   UNL     1      10.264   4.942  -4.124  0.00  0.00    +0.000 A 
ATOM     49  C   UNL     1       9.078   4.269  -3.900  0.00  0.00    +0.010 A 
ENDBRANCH  43  44
ENDBRANCH  27  43
ENDBRANCH  26  27
ENDBRANCH   1  26
TORSDOF 14
