MODEL 1
REMARK VINA RESULT:      -8.5      0.000      0.000
REMARK  Name = ZINC000022448696
REMARK  17 active torsions:
REMARK  status: ('A' for Active; 'I' for Inactive)
REMARK    1  A    between atoms: C1_1  and  C2_2
REMARK    2  A    between atoms: C2_2  and  C3_3
REMARK    3  A    between atoms: C2_2  and  C4_4
REMARK    4  A    between atoms: C2_2  and  N5_5
REMARK    5  A    between atoms: C6_6  and  C8_8
REMARK    6  A    between atoms: N11_11  and  C12_12
REMARK    7  A    between atoms: C12_12  and  C13_13
REMARK    8  A    between atoms: N21_21  and  C22_22
REMARK    9  A    between atoms: C22_22  and  C23_23
REMARK   10  A    between atoms: C23_23  and  O25_25
REMARK   11  A    between atoms: C23_23  and  C26_26
REMARK   12  A    between atoms: C26_26  and  C27_27
REMARK   13  A    between atoms: C27_27  and  C29_29
REMARK   14  A    between atoms: C27_27  and  C36_36
REMARK   15  A    between atoms: C29_29  and  C30_30
REMARK   16  A    between atoms: N38_38  and  C39_39
REMARK   17  A    between atoms: C48_48  and  O50_50
REMARK                            x       y       z     vdW  Elec       q    Type
REMARK                         _______ _______ _______ _____ _____    ______ ____
ROOT
ATOM      1  C   UNL     1     -20.585  -6.106 -30.475  0.00  0.00    +0.230 C 
ENDROOT
BRANCH   1   2
ATOM      2  O   UNL     1     -19.780  -5.082 -31.064  0.00  0.00    -0.550 OA
ATOM      3  H   UNL     1     -18.883  -5.366 -31.287  0.00  0.00    +0.370 HD
ENDBRANCH   1   2
BRANCH   1   4
ATOM      4  C   UNL     1     -21.335  -6.860 -31.574  0.00  0.00    +0.150 C 
BRANCH   4  10
ATOM      5  C   UNL     1     -20.256  -8.369 -33.131  0.00  0.00    +0.140 C 
ATOM      6  C   UNL     1     -19.303  -8.435 -34.327  0.00  0.00    +0.200 C 
ATOM      7  N   UNL     1     -19.882  -7.689 -35.453  0.00  0.00    -0.530 NA
ATOM      8  C   UNL     1     -20.109  -6.284 -35.088  0.00  0.00    +0.180 C 
ATOM      9  C   UNL     1     -21.063  -6.217 -33.892  0.00  0.00    +0.200 C 
ATOM     10  N   UNL     1     -20.484  -6.964 -32.766  0.00  0.00    -0.510 NA
BRANCH   5  13
ATOM     11  N   UNL     1     -18.377  -8.842 -31.594  0.00  0.00    -0.720 N 
ATOM     12  H   UNL     1     -17.854  -8.187 -32.082  0.00  0.00    +0.400 HD
ATOM     13  C   UNL     1     -19.647  -9.099 -31.962  0.00  0.00    +0.520 C 
ATOM     14  O   UNL     1     -20.302  -9.918 -31.351  0.00  0.00    -0.510 OA
BRANCH  11  16
ATOM     15  C   UNL     1     -18.303  -8.945 -29.152  0.00  0.00    +0.030 C 
ATOM     16  C   UNL     1     -17.786  -9.551 -30.457  0.00  0.00    +0.170 C 
ATOM     17  C   UNL     1     -18.173 -11.030 -30.521  0.00  0.00    +0.030 C 
ATOM     18  C   UNL     1     -16.262  -9.421 -30.512  0.00  0.00    +0.030 C 
ENDBRANCH  11  16
ENDBRANCH   5  13
BRANCH   7  19
ATOM     19  C   UNL     1     -19.031  -7.792 -36.646  0.00  0.00    +0.240 C 
BRANCH  19  20
ATOM     20  C   UNL     1     -19.433  -9.004 -37.447  0.00  0.00    -0.140 A 
ATOM     21  C   UNL     1     -20.747  -9.446 -37.438  0.00  0.00    +0.080 A 
ATOM     22  C   UNL     1     -21.072 -10.566 -38.190  0.00  0.00    -0.030 A 
ATOM     23  C   UNL     1     -20.082 -11.198 -38.917  0.00  0.00    +0.260 A 
ATOM     24  N   UNL     1     -18.842 -10.750 -38.901  0.00  0.00    -0.480 NA
ATOM     25  C   UNL     1     -18.499  -9.685 -38.203  0.00  0.00    +0.260 A 
ENDBRANCH  19  20
ENDBRANCH   7  19
ENDBRANCH   4  10
ENDBRANCH   1   4
BRANCH   1  26
ATOM     26  C   UNL     1     -21.591  -5.473 -29.511  0.00  0.00    +0.030 C 
BRANCH  26  27
ATOM     27  C   UNL     1     -21.171  -5.769 -28.070  0.00  0.00    +0.000 C 
BRANCH  27  28
ATOM     28  C   UNL     1     -22.401  -5.960 -27.218  0.00  0.00    +0.520 C 
ATOM     29  N   UNL     1     -23.361  -5.015 -27.200  0.00  0.00    -0.700 N 
ATOM     30  H   UNL     1     -23.307  -4.256 -27.801  0.00  0.00    +0.410 HD
ATOM     31  O   UNL     1     -22.525  -6.964 -26.550  0.00  0.00    -0.550 OA
BRANCH  29  32
ATOM     32  C   UNL     1     -24.487  -5.133 -26.271  0.00  0.00    +0.300 C 
ATOM     33  C   UNL     1     -24.254  -4.268 -25.050  0.00  0.00    -0.110 A 
ATOM     34  C   UNL     1     -23.117  -4.089 -24.282  0.00  0.00    +0.030 A 
ATOM     35  C   UNL     1     -23.140  -3.236 -23.195  0.00  0.00    +0.000 A 
ATOM     36  C   UNL     1     -24.301  -2.558 -22.874  0.00  0.00    +0.010 A 
ATOM     37  C   UNL     1     -25.437  -2.735 -23.641  0.00  0.00    +0.010 A 
ATOM     38  C   UNL     1     -25.417  -3.590 -24.729  0.00  0.00    -0.090 A 
ATOM     39  C   UNL     1     -26.508  -3.953 -25.713  0.00  0.00    +0.070 C 
ATOM     40  C   UNL     1     -25.776  -4.583 -26.918  0.00  0.00    +0.180 C 
BRANCH  40  41
ATOM     41  O   UNL     1     -25.470  -3.593 -27.901  0.00  0.00    -0.550 OA
ATOM     42  H   UNL     1     -25.682  -2.689 -27.629  0.00  0.00    +0.380 HD
ENDBRANCH  40  41
ENDBRANCH  29  32
ENDBRANCH  27  28
BRANCH  27  43
ATOM     43  C   UNL     1     -20.352  -4.596 -27.526  0.00  0.00    +0.110 C 
BRANCH  43  44
ATOM     44  C   UNL     1     -19.236  -5.121 -26.661  0.00  0.00    -0.090 A 
ATOM     45  C   UNL     1     -18.410  -4.240 -25.988  0.00  0.00    +0.000 A 
ATOM     46  C   UNL     1     -17.386  -4.722 -25.194  0.00  0.00    +0.000 A 
ATOM     47  C   UNL     1     -17.188  -6.084 -25.073  0.00  0.00    +0.010 A 
ATOM     48  C   UNL     1     -18.015  -6.965 -25.745  0.00  0.00    +0.000 A 
ATOM     49  C   UNL     1     -19.041  -6.485 -26.535  0.00  0.00    +0.010 A 
ENDBRANCH  43  44
ENDBRANCH  27  43
ENDBRANCH  26  27
ENDBRANCH   1  26
TORSDOF 14
ENDMDL
MODEL 2
REMARK VINA RESULT:      -8.1     26.858     30.324
REMARK  Name = ZINC000022448696
REMARK  17 active torsions:
REMARK  status: ('A' for Active; 'I' for Inactive)
REMARK    1  A    between atoms: C1_1  and  C2_2
REMARK    2  A    between atoms: C2_2  and  C3_3
REMARK    3  A    between atoms: C2_2  and  C4_4
REMARK    4  A    between atoms: C2_2  and  N5_5
REMARK    5  A    between atoms: C6_6  and  C8_8
REMARK    6  A    between atoms: N11_11  and  C12_12
REMARK    7  A    between atoms: C12_12  and  C13_13
REMARK    8  A    between atoms: N21_21  and  C22_22
REMARK    9  A    between atoms: C22_22  and  C23_23
REMARK   10  A    between atoms: C23_23  and  O25_25
REMARK   11  A    between atoms: C23_23  and  C26_26
REMARK   12  A    between atoms: C26_26  and  C27_27
REMARK   13  A    between atoms: C27_27  and  C29_29
REMARK   14  A    between atoms: C27_27  and  C36_36
REMARK   15  A    between atoms: C29_29  and  C30_30
REMARK   16  A    between atoms: N38_38  and  C39_39
REMARK   17  A    between atoms: C48_48  and  O50_50
REMARK                            x       y       z     vdW  Elec       q    Type
REMARK                         _______ _______ _______ _____ _____    ______ ____
ROOT
ATOM      1  C   UNL     1      -1.765  17.007 -35.543  0.00  0.00    +0.230 C 
ENDROOT
BRANCH   1   2
ATOM      2  O   UNL     1      -0.426  16.984 -36.042  0.00  0.00    -0.550 OA
ATOM      3  H   UNL     1       0.193  17.524 -35.530  0.00  0.00    +0.370 HD
ENDBRANCH   1   2
BRANCH   1   4
ATOM      4  C   UNL     1      -1.774  17.599 -34.133  0.00  0.00    +0.150 C 
BRANCH   4  10
ATOM      5  C   UNL     1      -2.959  17.563 -32.020  0.00  0.00    +0.140 C 
ATOM      6  C   UNL     1      -4.231  17.071 -31.327  0.00  0.00    +0.200 C 
ATOM      7  N   UNL     1      -5.404  17.676 -31.973  0.00  0.00    -0.530 NA
ATOM      8  C   UNL     1      -5.458  17.322 -33.398  0.00  0.00    +0.180 C 
ATOM      9  C   UNL     1      -4.186  17.815 -34.092  0.00  0.00    +0.200 C 
ATOM     10  N   UNL     1      -3.012  17.209 -33.446  0.00  0.00    -0.510 NA
BRANCH   5  13
ATOM     11  N   UNL     1      -0.848  17.666 -30.736  0.00  0.00    -0.720 N 
ATOM     12  H   UNL     1      -0.968  18.627 -30.676  0.00  0.00    +0.400 HD
ATOM     13  C   UNL     1      -1.756  16.913 -31.386  0.00  0.00    +0.520 C 
ATOM     14  O   UNL     1      -1.606  15.712 -31.461  0.00  0.00    -0.510 OA
BRANCH  11  16
ATOM     15  C   UNL     1       1.162  16.353 -31.199  0.00  0.00    +0.030 C 
ATOM     16  C   UNL     1       0.321  17.035 -30.119  0.00  0.00    +0.170 C 
ATOM     17  C   UNL     1       1.163  18.099 -29.413  0.00  0.00    +0.030 C 
ATOM     18  C   UNL     1      -0.142  15.992 -29.099  0.00  0.00    +0.030 C 
ENDBRANCH  11  16
ENDBRANCH   5  13
BRANCH   7  19
ATOM     19  C   UNL     1      -6.643  17.287 -31.286  0.00  0.00    +0.240 C 
BRANCH  19  20
ATOM     20  C   UNL     1      -6.511  17.571 -29.812  0.00  0.00    -0.140 A 
ATOM     21  C   UNL     1      -6.474  16.530 -28.897  0.00  0.00    +0.080 A 
ATOM     22  C   UNL     1      -6.350  16.839 -27.551  0.00  0.00    -0.030 A 
ATOM     23  C   UNL     1      -6.270  18.164 -27.169  0.00  0.00    +0.260 A 
ATOM     24  N   UNL     1      -6.309  19.129 -28.066  0.00  0.00    -0.480 NA
ATOM     25  C   UNL     1      -6.420  18.872 -29.355  0.00  0.00    +0.260 A 
ENDBRANCH  19  20
ENDBRANCH   7  19
ENDBRANCH   4  10
ENDBRANCH   1   4
BRANCH   1  26
ATOM     26  C   UNL     1      -2.318  15.581 -35.502  0.00  0.00    +0.030 C 
BRANCH  26  27
ATOM     27  C   UNL     1      -1.158  14.586 -35.444  0.00  0.00    +0.000 C 
BRANCH  27  28
ATOM     28  C   UNL     1      -1.108  13.796 -36.728  0.00  0.00    +0.520 C 
ATOM     29  N   UNL     1      -1.685  12.580 -36.793  0.00  0.00    -0.700 N 
ATOM     30  H   UNL     1      -2.209  12.251 -36.046  0.00  0.00    +0.410 HD
ATOM     31  O   UNL     1      -0.550  14.256 -37.701  0.00  0.00    -0.550 OA
BRANCH  29  32
ATOM     32  C   UNL     1      -1.520  11.755 -37.992  0.00  0.00    +0.300 C 
ATOM     33  C   UNL     1      -1.032  10.372 -37.615  0.00  0.00    -0.110 A 
ATOM     34  C   UNL     1      -0.052   9.980 -36.719  0.00  0.00    +0.030 A 
ATOM     35  C   UNL     1       0.227   8.639 -36.537  0.00  0.00    +0.000 A 
ATOM     36  C   UNL     1      -0.476   7.685 -37.250  0.00  0.00    +0.010 A 
ATOM     37  C   UNL     1      -1.454   8.075 -38.144  0.00  0.00    +0.010 A 
ATOM     38  C   UNL     1      -1.735   9.418 -38.329  0.00  0.00    -0.090 A 
ATOM     39  C   UNL     1      -2.742  10.095 -39.233  0.00  0.00    +0.070 C 
ATOM     40  C   UNL     1      -2.883  11.531 -38.681  0.00  0.00    +0.180 C 
BRANCH  40  41
ATOM     41  O   UNL     1      -3.951  11.609 -37.734  0.00  0.00    -0.550 OA
ATOM     42  H   UNL     1      -3.753  12.156 -36.962  0.00  0.00    +0.380 HD
ENDBRANCH  40  41
ENDBRANCH  29  32
ENDBRANCH  27  28
BRANCH  27  43
ATOM     43  C   UNL     1      -1.363  13.630 -34.266  0.00  0.00    +0.110 C 
BRANCH  43  44
ATOM     44  C   UNL     1      -0.046  13.397 -33.573  0.00  0.00    -0.090 A 
ATOM     45  C   UNL     1       1.111  13.959 -34.081  0.00  0.00    +0.000 A 
ATOM     46  C   UNL     1       2.320  13.745 -33.445  0.00  0.00    +0.000 A 
ATOM     47  C   UNL     1       2.372  12.968 -32.302  0.00  0.00    +0.010 A 
ATOM     48  C   UNL     1       1.215  12.407 -31.795  0.00  0.00    +0.000 A 
ATOM     49  C   UNL     1       0.006  12.624 -32.427  0.00  0.00    +0.010 A 
ENDBRANCH  43  44
ENDBRANCH  27  43
ENDBRANCH  26  27
ENDBRANCH   1  26
TORSDOF 14
ENDMDL
MODEL 3
REMARK VINA RESULT:      -8.0      3.311      8.545
REMARK  Name = ZINC000022448696
REMARK  17 active torsions:
REMARK  status: ('A' for Active; 'I' for Inactive)
REMARK    1  A    between atoms: C1_1  and  C2_2
REMARK    2  A    between atoms: C2_2  and  C3_3
REMARK    3  A    between atoms: C2_2  and  C4_4
REMARK    4  A    between atoms: C2_2  and  N5_5
REMARK    5  A    between atoms: C6_6  and  C8_8
REMARK    6  A    between atoms: N11_11  and  C12_12
REMARK    7  A    between atoms: C12_12  and  C13_13
REMARK    8  A    between atoms: N21_21  and  C22_22
REMARK    9  A    between atoms: C22_22  and  C23_23
REMARK   10  A    between atoms: C23_23  and  O25_25
REMARK   11  A    between atoms: C23_23  and  C26_26
REMARK   12  A    between atoms: C26_26  and  C27_27
REMARK   13  A    between atoms: C27_27  and  C29_29
REMARK   14  A    between atoms: C27_27  and  C36_36
REMARK   15  A    between atoms: C29_29  and  C30_30
REMARK   16  A    between atoms: N38_38  and  C39_39
REMARK   17  A    between atoms: C48_48  and  O50_50
REMARK                            x       y       z     vdW  Elec       q    Type
REMARK                         _______ _______ _______ _____ _____    ______ ____
ROOT
ATOM      1  C   UNL     1     -20.990 -10.104 -30.691  0.00  0.00    +0.230 C 
ENDROOT
BRANCH   1   2
ATOM      2  O   UNL     1     -20.921 -11.352 -31.385  0.00  0.00    -0.550 OA
ATOM      3  H   UNL     1     -20.977 -12.126 -30.807  0.00  0.00    +0.370 HD
ENDBRANCH   1   2
BRANCH   1   4
ATOM      4  C   UNL     1     -21.513 -10.338 -29.272  0.00  0.00    +0.150 C 
BRANCH   4  10
ATOM      5  C   UNL     1     -22.066  -9.237 -27.186  0.00  0.00    +0.140 C 
ATOM      6  C   UNL     1     -22.076  -7.886 -26.469  0.00  0.00    +0.200 C 
ATOM      7  N   UNL     1     -20.700  -7.376 -26.371  0.00  0.00    -0.530 NA
ATOM      8  C   UNL     1     -20.106  -7.215 -27.705  0.00  0.00    +0.180 C 
ATOM      9  C   UNL     1     -20.097  -8.567 -28.424  0.00  0.00    +0.200 C 
ATOM     10  N   UNL     1     -21.472  -9.076 -28.521  0.00  0.00    -0.510 NA
BRANCH   5  13
ATOM     11  N   UNL     1     -24.449  -8.923 -27.773  0.00  0.00    -0.720 N 
ATOM     12  H   UNL     1     -24.237  -8.006 -28.008  0.00  0.00    +0.400 HD
ATOM     13  C   UNL     1     -23.479  -9.744 -27.324  0.00  0.00    +0.520 C 
ATOM     14  O   UNL     1     -23.743 -10.891 -27.031  0.00  0.00    -0.510 OA
BRANCH  11  16
ATOM     15  C   UNL     1     -26.290  -9.991 -26.570  0.00  0.00    +0.030 C 
ATOM     16  C   UNL     1     -25.821  -9.415 -27.907  0.00  0.00    +0.170 C 
ATOM     17  C   UNL     1     -26.740  -8.262 -28.315  0.00  0.00    +0.030 C 
ATOM     18  C   UNL     1     -25.869 -10.508 -28.978  0.00  0.00    +0.030 C 
ENDBRANCH  11  16
ENDBRANCH   5  13
BRANCH   7  19
ATOM     19  C   UNL     1     -20.658  -6.115 -25.619  0.00  0.00    +0.240 C 
BRANCH  19  20
ATOM     20  C   UNL     1     -19.224  -5.704 -25.407  0.00  0.00    -0.140 A 
ATOM     21  C   UNL     1     -18.245  -6.662 -25.189  0.00  0.00    +0.080 A 
ATOM     22  C   UNL     1     -16.938  -6.238 -25.000  0.00  0.00    -0.030 A 
ATOM     23  C   UNL     1     -16.657  -4.886 -25.033  0.00  0.00    +0.260 A 
ATOM     24  N   UNL     1     -17.614  -4.003 -25.242  0.00  0.00    -0.480 NA
ATOM     25  C   UNL     1     -18.866  -4.370 -25.432  0.00  0.00    +0.260 A 
ENDBRANCH  19  20
ENDBRANCH   7  19
ENDBRANCH   4  10
ENDBRANCH   1   4
BRANCH   1  26
ATOM     26  C   UNL     1     -21.936  -9.159 -31.434  0.00  0.00    +0.030 C 
BRANCH  26  27
ATOM     27  C   UNL     1     -21.118  -8.109 -32.188  0.00  0.00    +0.000 C 
BRANCH  27  28
ATOM     28  C   UNL     1     -21.036  -6.849 -31.364  0.00  0.00    +0.520 C 
ATOM     29  N   UNL     1     -22.111  -6.429 -30.667  0.00  0.00    -0.700 N 
ATOM     30  H   UNL     1     -22.906  -6.983 -30.621  0.00  0.00    +0.410 HD
ATOM     31  O   UNL     1     -20.004  -6.213 -31.329  0.00  0.00    -0.550 OA
BRANCH  29  32
ATOM     32  C   UNL     1     -22.078  -5.137 -29.979  0.00  0.00    +0.300 C 
ATOM     33  C   UNL     1     -22.764  -4.078 -30.816  0.00  0.00    -0.110 A 
ATOM     34  C   UNL     1     -22.680  -3.813 -32.172  0.00  0.00    +0.030 A 
ATOM     35  C   UNL     1     -23.409  -2.778 -32.725  0.00  0.00    +0.000 A 
ATOM     36  C   UNL     1     -24.227  -2.004 -31.922  0.00  0.00    +0.010 A 
ATOM     37  C   UNL     1     -24.312  -2.268 -30.568  0.00  0.00    +0.010 A 
ATOM     38  C   UNL     1     -23.582  -3.304 -30.012  0.00  0.00    -0.090 A 
ATOM     39  C   UNL     1     -23.500  -3.791 -28.581  0.00  0.00    +0.070 C 
ATOM     40  C   UNL     1     -22.889  -5.207 -28.668  0.00  0.00    +0.180 C 
BRANCH  40  41
ATOM     41  O   UNL     1     -23.915  -6.198 -28.756  0.00  0.00    -0.550 OA
ATOM     42  H   UNL     1     -24.214  -6.376 -29.658  0.00  0.00    +0.380 HD
ENDBRANCH  40  41
ENDBRANCH  29  32
ENDBRANCH  27  28
BRANCH  27  43
ATOM     43  C   UNL     1     -21.793  -7.799 -33.526  0.00  0.00    +0.110 C 
BRANCH  43  44
ATOM     44  C   UNL     1     -20.803  -7.134 -34.446  0.00  0.00    -0.090 A 
ATOM     45  C   UNL     1     -20.935  -5.791 -34.749  0.00  0.00    +0.000 A 
ATOM     46  C   UNL     1     -20.027  -5.180 -35.593  0.00  0.00    +0.000 A 
ATOM     47  C   UNL     1     -18.987  -5.911 -36.135  0.00  0.00    +0.010 A 
ATOM     48  C   UNL     1     -18.854  -7.254 -35.832  0.00  0.00    +0.000 A 
ATOM     49  C   UNL     1     -19.759  -7.864 -34.985  0.00  0.00    +0.010 A 
ENDBRANCH  43  44
ENDBRANCH  27  43
ENDBRANCH  26  27
ENDBRANCH   1  26
TORSDOF 14
ENDMDL
MODEL 4
REMARK VINA RESULT:      -7.9      2.039      4.702
REMARK  Name = ZINC000022448696
REMARK  17 active torsions:
REMARK  status: ('A' for Active; 'I' for Inactive)
REMARK    1  A    between atoms: C1_1  and  C2_2
REMARK    2  A    between atoms: C2_2  and  C3_3
REMARK    3  A    between atoms: C2_2  and  C4_4
REMARK    4  A    between atoms: C2_2  and  N5_5
REMARK    5  A    between atoms: C6_6  and  C8_8
REMARK    6  A    between atoms: N11_11  and  C12_12
REMARK    7  A    between atoms: C12_12  and  C13_13
REMARK    8  A    between atoms: N21_21  and  C22_22
REMARK    9  A    between atoms: C22_22  and  C23_23
REMARK   10  A    between atoms: C23_23  and  O25_25
REMARK   11  A    between atoms: C23_23  and  C26_26
REMARK   12  A    between atoms: C26_26  and  C27_27
REMARK   13  A    between atoms: C27_27  and  C29_29
REMARK   14  A    between atoms: C27_27  and  C36_36
REMARK   15  A    between atoms: C29_29  and  C30_30
REMARK   16  A    between atoms: N38_38  and  C39_39
REMARK   17  A    between atoms: C48_48  and  O50_50
REMARK                            x       y       z     vdW  Elec       q    Type
REMARK                         _______ _______ _______ _____ _____    ______ ____
ROOT
ATOM      1  C   UNL     1     -20.583  -6.378 -30.243  0.00  0.00    +0.230 C 
ENDROOT
BRANCH   1   2
ATOM      2  O   UNL     1     -19.826  -5.338 -30.865  0.00  0.00    -0.550 OA
ATOM      3  H   UNL     1     -19.841  -4.499 -30.383  0.00  0.00    +0.370 HD
ENDBRANCH   1   2
BRANCH   1   4
ATOM      4  C   UNL     1     -21.259  -7.230 -31.319  0.00  0.00    +0.150 C 
BRANCH   4  10
ATOM      5  C   UNL     1     -19.280  -8.368 -32.129  0.00  0.00    +0.140 C 
ATOM      6  C   UNL     1     -18.627  -9.742 -32.294  0.00  0.00    +0.200 C 
ATOM      7  N   UNL     1     -18.434 -10.352 -30.971  0.00  0.00    -0.530 NA
ATOM      8  C   UNL     1     -19.718 -10.504 -30.273  0.00  0.00    +0.180 C 
ATOM      9  C   UNL     1     -20.372  -9.130 -30.107  0.00  0.00    +0.200 C 
ATOM     10  N   UNL     1     -20.565  -8.520 -31.430  0.00  0.00    -0.510 NA
BRANCH   5  13
ATOM     11  N   UNL     1     -19.155  -6.480 -33.722  0.00  0.00    -0.720 N 
ATOM     12  H   UNL     1     -18.744  -5.955 -33.018  0.00  0.00    +0.400 HD
ATOM     13  C   UNL     1     -19.516  -7.757 -33.486  0.00  0.00    +0.520 C 
ATOM     14  O   UNL     1     -20.029  -8.414 -34.367  0.00  0.00    -0.510 OA
BRANCH  11  16
ATOM     15  C   UNL     1     -18.423  -6.509 -36.055  0.00  0.00    +0.030 C 
ATOM     16  C   UNL     1     -19.384  -5.886 -35.041  0.00  0.00    +0.170 C 
ATOM     17  C   UNL     1     -20.826  -6.150 -35.477  0.00  0.00    +0.030 C 
ATOM     18  C   UNL     1     -19.141  -4.376 -34.969  0.00  0.00    +0.030 C 
ENDBRANCH  11  16
ENDBRANCH   5  13
BRANCH   7  19
ATOM     19  C   UNL     1     -17.739 -11.642 -31.081  0.00  0.00    +0.240 C 
BRANCH  19  20
ATOM     20  C   UNL     1     -16.392 -11.545 -30.413  0.00  0.00    -0.140 A 
ATOM     21  C   UNL     1     -15.562 -10.463 -30.661  0.00  0.00    +0.080 A 
ATOM     22  C   UNL     1     -14.331 -10.416 -30.022  0.00  0.00    -0.030 A 
ATOM     23  C   UNL     1     -13.976 -11.441 -29.168  0.00  0.00    +0.260 A 
ATOM     24  N   UNL     1     -14.791 -12.456 -28.956  0.00  0.00    -0.480 NA
ATOM     25  C   UNL     1     -15.971 -12.531 -29.541  0.00  0.00    +0.260 A 
ENDBRANCH  19  20
ENDBRANCH   7  19
ENDBRANCH   4  10
ENDBRANCH   1   4
BRANCH   1  26
ATOM     26  C   UNL     1     -21.650  -5.761 -29.336  0.00  0.00    +0.030 C 
BRANCH  26  27
ATOM     27  C   UNL     1     -21.242  -5.943 -27.873  0.00  0.00    +0.000 C 
BRANCH  27  28
ATOM     28  C   UNL     1     -22.478  -6.085 -27.021  0.00  0.00    +0.520 C 
ATOM     29  N   UNL     1     -23.431  -5.133 -27.054  0.00  0.00    -0.700 N 
ATOM     30  H   UNL     1     -23.368  -4.404 -27.691  0.00  0.00    +0.410 HD
ATOM     31  O   UNL     1     -22.613  -7.055 -26.306  0.00  0.00    -0.550 OA
BRANCH  29  32
ATOM     32  C   UNL     1     -24.564  -5.199 -26.127  0.00  0.00    +0.300 C 
ATOM     33  C   UNL     1     -24.321  -4.299 -24.935  0.00  0.00    -0.110 A 
ATOM     34  C   UNL     1     -23.184  -4.115 -24.167  0.00  0.00    +0.030 A 
ATOM     35  C   UNL     1     -23.195  -3.227 -23.109  0.00  0.00    +0.000 A 
ATOM     36  C   UNL     1     -24.345  -2.516 -22.817  0.00  0.00    +0.010 A 
ATOM     37  C   UNL     1     -25.480  -2.698 -23.583  0.00  0.00    +0.010 A 
ATOM     38  C   UNL     1     -25.471  -3.589 -24.643  0.00  0.00    -0.090 A 
ATOM     39  C   UNL     1     -26.565  -3.964 -25.619  0.00  0.00    +0.070 C 
ATOM     40  C   UNL     1     -25.839  -4.647 -26.800  0.00  0.00    +0.180 C 
BRANCH  40  41
ATOM     41  O   UNL     1     -25.509  -3.695 -27.813  0.00  0.00    -0.550 OA
ATOM     42  H   UNL     1     -25.910  -2.825 -27.682  0.00  0.00    +0.380 HD
ENDBRANCH  40  41
ENDBRANCH  29  32
ENDBRANCH  27  28
BRANCH  27  43
ATOM     43  C   UNL     1     -20.442  -4.723 -27.411  0.00  0.00    +0.110 C 
BRANCH  43  44
ATOM     44  C   UNL     1     -19.263  -5.177 -26.590  0.00  0.00    -0.090 A 
ATOM     45  C   UNL     1     -19.064  -6.524 -26.352  0.00  0.00    +0.000 A 
ATOM     46  C   UNL     1     -17.982  -6.941 -25.599  0.00  0.00    +0.000 A 
ATOM     47  C   UNL     1     -17.099  -6.010 -25.084  0.00  0.00    +0.010 A 
ATOM     48  C   UNL     1     -17.298  -4.663 -25.323  0.00  0.00    +0.000 A 
ATOM     49  C   UNL     1     -18.376  -4.246 -26.079  0.00  0.00    +0.010 A 
ENDBRANCH  43  44
ENDBRANCH  27  43
ENDBRANCH  26  27
ENDBRANCH   1  26
TORSDOF 14
ENDMDL
MODEL 5
REMARK VINA RESULT:      -7.9     21.407     25.961
REMARK  Name = ZINC000022448696
REMARK  17 active torsions:
REMARK  status: ('A' for Active; 'I' for Inactive)
REMARK    1  A    between atoms: C1_1  and  C2_2
REMARK    2  A    between atoms: C2_2  and  C3_3
REMARK    3  A    between atoms: C2_2  and  C4_4
REMARK    4  A    between atoms: C2_2  and  N5_5
REMARK    5  A    between atoms: C6_6  and  C8_8
REMARK    6  A    between atoms: N11_11  and  C12_12
REMARK    7  A    between atoms: C12_12  and  C13_13
REMARK    8  A    between atoms: N21_21  and  C22_22
REMARK    9  A    between atoms: C22_22  and  C23_23
REMARK   10  A    between atoms: C23_23  and  O25_25
REMARK   11  A    between atoms: C23_23  and  C26_26
REMARK   12  A    between atoms: C26_26  and  C27_27
REMARK   13  A    between atoms: C27_27  and  C29_29
REMARK   14  A    between atoms: C27_27  and  C36_36
REMARK   15  A    between atoms: C29_29  and  C30_30
REMARK   16  A    between atoms: N38_38  and  C39_39
REMARK   17  A    between atoms: C48_48  and  O50_50
REMARK                            x       y       z     vdW  Elec       q    Type
REMARK                         _______ _______ _______ _____ _____    ______ ____
ROOT
ATOM      1  C   UNL     1       2.273  -4.696 -37.725  0.00  0.00    +0.230 C 
ENDROOT
BRANCH   1   2
ATOM      2  O   UNL     1       1.946  -5.293 -38.982  0.00  0.00    -0.550 OA
ATOM      3  H   UNL     1       1.838  -6.253 -38.945  0.00  0.00    +0.370 HD
ENDBRANCH   1   2
BRANCH   1   4
ATOM      4  C   UNL     1       1.186  -3.691 -37.339  0.00  0.00    +0.150 C 
BRANCH   4  10
ATOM      5  C   UNL     1      -0.372  -3.408 -35.506  0.00  0.00    +0.140 C 
ATOM      6  C   UNL     1      -1.344  -4.150 -34.587  0.00  0.00    +0.200 C 
ATOM      7  N   UNL     1      -2.408  -4.763 -35.395  0.00  0.00    -0.530 NA
ATOM      8  C   UNL     1      -1.846  -5.706 -36.372  0.00  0.00    +0.180 C 
ATOM      9  C   UNL     1      -0.874  -4.963 -37.292  0.00  0.00    +0.200 C 
ATOM     10  N   UNL     1       0.190  -4.350 -36.484  0.00  0.00    -0.510 NA
BRANCH   5  13
ATOM     11  N   UNL     1       1.264  -3.504 -33.654  0.00  0.00    -0.720 N 
ATOM     12  H   UNL     1       0.922  -4.386 -33.440  0.00  0.00    +0.400 HD
ATOM     13  C   UNL     1       0.742  -2.811 -34.685  0.00  0.00    +0.520 C 
ATOM     14  O   UNL     1       1.170  -1.708 -34.953  0.00  0.00    -0.510 OA
BRANCH  11  16
ATOM     15  C   UNL     1       3.629  -2.886 -33.689  0.00  0.00    +0.030 C 
ATOM     16  C   UNL     1       2.347  -2.925 -32.856  0.00  0.00    +0.170 C 
ATOM     17  C   UNL     1       1.968  -1.503 -32.437  0.00  0.00    +0.030 C 
ATOM     18  C   UNL     1       2.574  -3.781 -31.608  0.00  0.00    +0.030 C 
ENDBRANCH  11  16
ENDBRANCH   5  13
BRANCH   7  19
ATOM     19  C   UNL     1      -3.405  -5.422 -34.540  0.00  0.00    +0.240 C 
BRANCH  19  20
ATOM     20  C   UNL     1      -4.760  -4.810 -34.785  0.00  0.00    -0.140 A 
ATOM     21  C   UNL     1      -5.817  -5.595 -35.219  0.00  0.00    +0.080 A 
ATOM     22  C   UNL     1      -7.046  -4.989 -35.430  0.00  0.00    -0.030 A 
ATOM     23  C   UNL     1      -7.175  -3.632 -35.204  0.00  0.00    +0.260 A 
ATOM     24  N   UNL     1      -6.148  -2.916 -34.792  0.00  0.00    -0.480 NA
ATOM     25  C   UNL     1      -4.967  -3.459 -34.575  0.00  0.00    +0.260 A 
ENDBRANCH  19  20
ENDBRANCH   7  19
ENDBRANCH   4  10
ENDBRANCH   1   4
BRANCH   1  26
ATOM     26  C   UNL     1       3.618  -3.976 -37.837  0.00  0.00    +0.030 C 
BRANCH  26  27
ATOM     27  C   UNL     1       4.479  -4.314 -36.618  0.00  0.00    +0.000 C 
BRANCH  27  28
ATOM     28  C   UNL     1       5.838  -3.679 -36.772  0.00  0.00    +0.520 C 
ATOM     29  N   UNL     1       6.921  -4.450 -36.993  0.00  0.00    -0.700 N 
ATOM     30  H   UNL     1       6.816  -5.403 -37.144  0.00  0.00    +0.410 HD
ATOM     31  O   UNL     1       5.957  -2.475 -36.697  0.00  0.00    -0.550 OA
BRANCH  29  32
ATOM     32  C   UNL     1       8.257  -3.851 -37.005  0.00  0.00    +0.300 C 
ATOM     33  C   UNL     1       8.907  -3.988 -35.645  0.00  0.00    -0.110 A 
ATOM     34  C   UNL     1       8.388  -3.786 -34.378  0.00  0.00    +0.030 A 
ATOM     35  C   UNL     1       9.181  -3.974 -33.263  0.00  0.00    +0.000 A 
ATOM     36  C   UNL     1      10.499  -4.368 -33.412  0.00  0.00    +0.010 A 
ATOM     37  C   UNL     1      11.018  -4.570 -34.676  0.00  0.00    +0.010 A 
ATOM     38  C   UNL     1      10.225  -4.381 -35.795  0.00  0.00    -0.090 A 
ATOM     39  C   UNL     1      10.549  -4.534 -37.265  0.00  0.00    +0.070 C 
ATOM     40  C   UNL     1       9.180  -4.617 -37.976  0.00  0.00    +0.180 C 
BRANCH  40  41
ATOM     41  O   UNL     1       8.759  -5.976 -38.113  0.00  0.00    -0.550 OA
ATOM     42  H   UNL     1       8.438  -6.373 -37.292  0.00  0.00    +0.380 HD
ENDBRANCH  40  41
ENDBRANCH  29  32
ENDBRANCH  27  28
BRANCH  27  43
ATOM     43  C   UNL     1       4.636  -5.832 -36.509  0.00  0.00    +0.110 C 
BRANCH  43  44
ATOM     44  C   UNL     1       4.492  -6.250 -35.069  0.00  0.00    -0.090 A 
ATOM     45  C   UNL     1       3.250  -6.601 -34.572  0.00  0.00    +0.000 A 
ATOM     46  C   UNL     1       3.117  -6.984 -33.251  0.00  0.00    +0.000 A 
ATOM     47  C   UNL     1       4.226  -7.018 -32.426  0.00  0.00    +0.010 A 
ATOM     48  C   UNL     1       5.468  -6.668 -32.923  0.00  0.00    +0.000 A 
ATOM     49  C   UNL     1       5.602  -6.289 -34.245  0.00  0.00    +0.010 A 
ENDBRANCH  43  44
ENDBRANCH  27  43
ENDBRANCH  26  27
ENDBRANCH   1  26
TORSDOF 14
ENDMDL
MODEL 6
REMARK VINA RESULT:      -7.7     28.078     30.804
REMARK  Name = ZINC000022448696
REMARK  17 active torsions:
REMARK  status: ('A' for Active; 'I' for Inactive)
REMARK    1  A    between atoms: C1_1  and  C2_2
REMARK    2  A    between atoms: C2_2  and  C3_3
REMARK    3  A    between atoms: C2_2  and  C4_4
REMARK    4  A    between atoms: C2_2  and  N5_5
REMARK    5  A    between atoms: C6_6  and  C8_8
REMARK    6  A    between atoms: N11_11  and  C12_12
REMARK    7  A    between atoms: C12_12  and  C13_13
REMARK    8  A    between atoms: N21_21  and  C22_22
REMARK    9  A    between atoms: C22_22  and  C23_23
REMARK   10  A    between atoms: C23_23  and  O25_25
REMARK   11  A    between atoms: C23_23  and  C26_26
REMARK   12  A    between atoms: C26_26  and  C27_27
REMARK   13  A    between atoms: C27_27  and  C29_29
REMARK   14  A    between atoms: C27_27  and  C36_36
REMARK   15  A    between atoms: C29_29  and  C30_30
REMARK   16  A    between atoms: N38_38  and  C39_39
REMARK   17  A    between atoms: C48_48  and  O50_50
REMARK                            x       y       z     vdW  Elec       q    Type
REMARK                         _______ _______ _______ _____ _____    ______ ____
ROOT
ATOM      1  C   UNL     1      -0.677  19.924 -31.300  0.00  0.00    +0.230 C 
ENDROOT
BRANCH   1   2
ATOM      2  O   UNL     1      -0.660  21.232 -31.876  0.00  0.00    -0.550 OA
ATOM      3  H   UNL     1       0.217  21.523 -32.164  0.00  0.00    +0.370 HD
ENDBRANCH   1   2
BRANCH   1   4
ATOM      4  C   UNL     1      -1.461  18.977 -32.211  0.00  0.00    +0.150 C 
BRANCH   4  10
ATOM      5  C   UNL     1      -2.018  16.644 -32.551  0.00  0.00    +0.140 C 
ATOM      6  C   UNL     1      -1.650  15.216 -32.145  0.00  0.00    +0.200 C 
ATOM      7  N   UNL     1      -0.261  14.940 -32.536  0.00  0.00    -0.530 NA
ATOM      8  C   UNL     1       0.662  15.883 -31.890  0.00  0.00    +0.180 C 
ATOM      9  C   UNL     1       0.295  17.312 -32.297  0.00  0.00    +0.200 C 
ATOM     10  N   UNL     1      -1.094  17.588 -31.905  0.00  0.00    -0.510 NA
BRANCH   5  13
ATOM     11  N   UNL     1      -4.389  17.151 -33.037  0.00  0.00    -0.720 N 
ATOM     12  H   UNL     1      -4.172  17.107 -33.982  0.00  0.00    +0.400 HD
ATOM     13  C   UNL     1      -3.429  16.944 -32.115  0.00  0.00    +0.520 C 
ATOM     14  O   UNL     1      -3.700  16.999 -30.934  0.00  0.00    -0.510 OA
BRANCH  11  16
ATOM     15  C   UNL     1      -6.619  17.751 -33.842  0.00  0.00    +0.030 C 
ATOM     16  C   UNL     1      -5.761  17.442 -32.614  0.00  0.00    +0.170 C 
ATOM     17  C   UNL     1      -6.337  16.229 -31.882  0.00  0.00    +0.030 C 
ATOM     18  C   UNL     1      -5.759  18.651 -31.675  0.00  0.00    +0.030 C 
ENDBRANCH  11  16
ENDBRANCH   5  13
BRANCH   7  19
ATOM     19  C   UNL     1       0.107  13.550 -32.231  0.00  0.00    +0.240 C 
BRANCH  19  20
ATOM     20  C   UNL     1       0.089  12.736 -33.499  0.00  0.00    -0.140 A 
ATOM     21  C   UNL     1       0.386  11.382 -33.467  0.00  0.00    +0.080 A 
ATOM     22  C   UNL     1       0.356  10.672 -34.658  0.00  0.00    -0.030 A 
ATOM     23  C   UNL     1       0.035  11.333 -35.828  0.00  0.00    +0.260 A 
ATOM     24  N   UNL     1      -0.241  12.622 -35.821  0.00  0.00    -0.480 NA
ATOM     25  C   UNL     1      -0.228  13.327 -34.707  0.00  0.00    +0.260 A 
ENDBRANCH  19  20
ENDBRANCH   7  19
ENDBRANCH   4  10
ENDBRANCH   1   4
BRANCH   1  26
ATOM     26  C   UNL     1      -1.347  19.980 -29.926  0.00  0.00    +0.030 C 
BRANCH  26  27
ATOM     27  C   UNL     1      -0.446  19.301 -28.893  0.00  0.00    +0.000 C 
BRANCH  27  28
ATOM     28  C   UNL     1      -1.260  18.940 -27.676  0.00  0.00    +0.520 C 
ATOM     29  N   UNL     1      -1.690  17.674 -27.505  0.00  0.00    -0.700 N 
ATOM     30  H   UNL     1      -1.400  16.977 -28.113  0.00  0.00    +0.410 HD
ATOM     31  O   UNL     1      -1.529  19.788 -26.853  0.00  0.00    -0.550 OA
BRANCH  29  32
ATOM     32  C   UNL     1      -2.595  17.352 -26.399  0.00  0.00    +0.300 C 
ATOM     33  C   UNL     1      -3.999  17.124 -26.919  0.00  0.00    -0.110 A 
ATOM     34  C   UNL     1      -4.738  17.836 -27.848  0.00  0.00    +0.030 A 
ATOM     35  C   UNL     1      -6.020  17.436 -28.170  0.00  0.00    +0.000 A 
ATOM     36  C   UNL     1      -6.568  16.321 -27.563  0.00  0.00    +0.010 A 
ATOM     37  C   UNL     1      -5.831  15.609 -26.636  0.00  0.00    +0.010 A 
ATOM     38  C   UNL     1      -4.546  16.008 -26.311  0.00  0.00    -0.090 A 
ATOM     39  C   UNL     1      -3.548  15.411 -25.344  0.00  0.00    +0.070 C 
ATOM     40  C   UNL     1      -2.184  16.017 -25.742  0.00  0.00    +0.180 C 
BRANCH  40  41
ATOM     41  O   UNL     1      -1.507  15.175 -26.678  0.00  0.00    -0.550 OA
ATOM     42  H   UNL     1      -1.940  15.118 -27.540  0.00  0.00    +0.380 HD
ENDBRANCH  40  41
ENDBRANCH  29  32
ENDBRANCH  27  28
BRANCH  27  43
ATOM     43  C   UNL     1       0.677  20.258 -28.488  0.00  0.00    +0.110 C 
BRANCH  43  44
ATOM     44  C   UNL     1       1.995  19.526 -28.515  0.00  0.00    -0.090 A 
ATOM     45  C   UNL     1       3.121  20.112 -27.968  0.00  0.00    +0.000 A 
ATOM     46  C   UNL     1       4.330  19.441 -27.993  0.00  0.00    +0.000 A 
ATOM     47  C   UNL     1       4.412  18.185 -28.564  0.00  0.00    +0.010 A 
ATOM     48  C   UNL     1       3.285  17.599 -29.109  0.00  0.00    +0.000 A 
ATOM     49  C   UNL     1       2.075  18.267 -29.081  0.00  0.00    +0.010 A 
ENDBRANCH  43  44
ENDBRANCH  27  43
ENDBRANCH  26  27
ENDBRANCH   1  26
TORSDOF 14
ENDMDL
MODEL 7
REMARK VINA RESULT:      -7.6     32.686     36.194
REMARK  Name = ZINC000022448696
REMARK  17 active torsions:
REMARK  status: ('A' for Active; 'I' for Inactive)
REMARK    1  A    between atoms: C1_1  and  C2_2
REMARK    2  A    between atoms: C2_2  and  C3_3
REMARK    3  A    between atoms: C2_2  and  C4_4
REMARK    4  A    between atoms: C2_2  and  N5_5
REMARK    5  A    between atoms: C6_6  and  C8_8
REMARK    6  A    between atoms: N11_11  and  C12_12
REMARK    7  A    between atoms: C12_12  and  C13_13
REMARK    8  A    between atoms: N21_21  and  C22_22
REMARK    9  A    between atoms: C22_22  and  C23_23
REMARK   10  A    between atoms: C23_23  and  O25_25
REMARK   11  A    between atoms: C23_23  and  C26_26
REMARK   12  A    between atoms: C26_26  and  C27_27
REMARK   13  A    between atoms: C27_27  and  C29_29
REMARK   14  A    between atoms: C27_27  and  C36_36
REMARK   15  A    between atoms: C29_29  and  C30_30
REMARK   16  A    between atoms: N38_38  and  C39_39
REMARK   17  A    between atoms: C48_48  and  O50_50
REMARK                            x       y       z     vdW  Elec       q    Type
REMARK                         _______ _______ _______ _____ _____    ______ ____
ROOT
ATOM      1  C   UNL     1       2.111  23.221 -25.153  0.00  0.00    +0.230 C 
ENDROOT
BRANCH   1   2
ATOM      2  O   UNL     1       3.405  22.808 -24.710  0.00  0.00    -0.550 OA
ATOM      3  H   UNL     1       3.651  23.151 -23.840  0.00  0.00    +0.370 HD
ENDBRANCH   1   2
BRANCH   1   4
ATOM      4  C   UNL     1       2.176  23.605 -26.633  0.00  0.00    +0.150 C 
BRANCH   4  10
ATOM      5  C   UNL     1       1.861  21.296 -27.294  0.00  0.00    +0.140 C 
ATOM      6  C   UNL     1       1.031  20.370 -28.186  0.00  0.00    +0.200 C 
ATOM      7  N   UNL     1      -0.382  20.448 -27.790  0.00  0.00    -0.530 NA
ATOM      8  C   UNL     1      -0.885  21.823 -27.914  0.00  0.00    +0.180 C 
ATOM      9  C   UNL     1      -0.055  22.750 -27.022  0.00  0.00    +0.200 C 
ATOM     10  N   UNL     1       1.358  22.672 -27.418  0.00  0.00    -0.510 NA
BRANCH   5  13
ATOM     11  N   UNL     1       4.242  20.769 -26.884  0.00  0.00    -0.720 N 
ATOM     12  H   UNL     1       3.988  20.455 -26.002  0.00  0.00    +0.400 HD
ATOM     13  C   UNL     1       3.304  21.248 -27.724  0.00  0.00    +0.520 C 
ATOM     14  O   UNL     1       3.622  21.641 -28.827  0.00  0.00    -0.510 OA
BRANCH  11  16
ATOM     15  C   UNL     1       5.775  19.863 -28.559  0.00  0.00    +0.030 C 
ATOM     16  C   UNL     1       5.645  20.723 -27.301  0.00  0.00    +0.170 C 
ATOM     17  C   UNL     1       6.136  22.141 -27.600  0.00  0.00    +0.030 C 
ATOM     18  C   UNL     1       6.491  20.117 -26.178  0.00  0.00    +0.030 C 
ENDBRANCH  11  16
ENDBRANCH   5  13
BRANCH   7  19
ATOM     19  C   UNL     1      -1.202  19.515 -28.574  0.00  0.00    +0.240 C 
BRANCH  19  20
ATOM     20  C   UNL     1      -1.421  18.251 -27.783  0.00  0.00    -0.140 A 
ATOM     21  C   UNL     1      -2.124  18.284 -26.589  0.00  0.00    +0.080 A 
ATOM     22  C   UNL     1      -2.302  17.097 -25.895  0.00  0.00    -0.030 A 
ATOM     23  C   UNL     1      -1.776  15.930 -26.412  0.00  0.00    +0.260 A 
ATOM     24  N   UNL     1      -1.111  15.935 -27.551  0.00  0.00    -0.480 NA
ATOM     25  C   UNL     1      -0.928  17.044 -28.240  0.00  0.00    +0.260 A 
ENDBRANCH  19  20
ENDBRANCH   7  19
ENDBRANCH   4  10
ENDBRANCH   1   4
BRANCH   1  26
ATOM     26  C   UNL     1       1.651  24.427 -24.333  0.00  0.00    +0.030 C 
BRANCH  26  27
ATOM     27  C   UNL     1       0.806  23.948 -23.151  0.00  0.00    +0.000 C 
BRANCH  27  28
ATOM     28  C   UNL     1       1.700  23.307 -22.121  0.00  0.00    +0.520 C 
ATOM     29  N   UNL     1       1.764  21.964 -22.027  0.00  0.00    -0.700 N 
ATOM     30  H   UNL     1       1.307  21.409 -22.679  0.00  0.00    +0.410 HD
ATOM     31  O   UNL     1       2.362  23.999 -21.377  0.00  0.00    -0.550 OA
BRANCH  29  32
ATOM     32  C   UNL     1       2.523  21.341 -20.940  0.00  0.00    +0.300 C 
ATOM     33  C   UNL     1       1.734  20.199 -20.335  0.00  0.00    -0.110 A 
ATOM     34  C   UNL     1       0.397  20.117 -19.990  0.00  0.00    +0.030 A 
ATOM     35  C   UNL     1      -0.110  18.954 -19.443  0.00  0.00    +0.000 A 
ATOM     36  C   UNL     1       0.721  17.867 -19.241  0.00  0.00    +0.010 A 
ATOM     37  C   UNL     1       2.056  17.947 -19.587  0.00  0.00    +0.010 A 
ATOM     38  C   UNL     1       2.566  19.112 -20.134  0.00  0.00    -0.090 A 
ATOM     39  C   UNL     1       3.969  19.451 -20.589  0.00  0.00    +0.070 C 
ATOM     40  C   UNL     1       3.815  20.698 -21.487  0.00  0.00    +0.180 C 
BRANCH  40  41
ATOM     41  O   UNL     1       3.655  20.322 -22.857  0.00  0.00    -0.550 OA
ATOM     42  H   UNL     1       4.466  20.000 -23.274  0.00  0.00    +0.380 HD
ENDBRANCH  40  41
ENDBRANCH  29  32
ENDBRANCH  27  28
BRANCH  27  43
ATOM     43  C   UNL     1      -0.222  22.925 -23.641  0.00  0.00    +0.110 C 
BRANCH  43  44
ATOM     44  C   UNL     1      -1.553  23.199 -22.990  0.00  0.00    -0.090 A 
ATOM     45  C   UNL     1      -2.259  22.167 -22.402  0.00  0.00    +0.000 A 
ATOM     46  C   UNL     1      -3.481  22.417 -21.804  0.00  0.00    +0.000 A 
ATOM     47  C   UNL     1      -3.995  23.700 -21.796  0.00  0.00    +0.010 A 
ATOM     48  C   UNL     1      -3.288  24.733 -22.384  0.00  0.00    +0.000 A 
ATOM     49  C   UNL     1      -2.066  24.484 -22.977  0.00  0.00    +0.010 A 
ENDBRANCH  43  44
ENDBRANCH  27  43
ENDBRANCH  26  27
ENDBRANCH   1  26
TORSDOF 14
ENDMDL
MODEL 8
REMARK VINA RESULT:      -7.6     21.402     26.476
REMARK  Name = ZINC000022448696
REMARK  17 active torsions:
REMARK  status: ('A' for Active; 'I' for Inactive)
REMARK    1  A    between atoms: C1_1  and  C2_2
REMARK    2  A    between atoms: C2_2  and  C3_3
REMARK    3  A    between atoms: C2_2  and  C4_4
REMARK    4  A    between atoms: C2_2  and  N5_5
REMARK    5  A    between atoms: C6_6  and  C8_8
REMARK    6  A    between atoms: N11_11  and  C12_12
REMARK    7  A    between atoms: C12_12  and  C13_13
REMARK    8  A    between atoms: N21_21  and  C22_22
REMARK    9  A    between atoms: C22_22  and  C23_23
REMARK   10  A    between atoms: C23_23  and  O25_25
REMARK   11  A    between atoms: C23_23  and  C26_26
REMARK   12  A    between atoms: C26_26  and  C27_27
REMARK   13  A    between atoms: C27_27  and  C29_29
REMARK   14  A    between atoms: C27_27  and  C36_36
REMARK   15  A    between atoms: C29_29  and  C30_30
REMARK   16  A    between atoms: N38_38  and  C39_39
REMARK   17  A    between atoms: C48_48  and  O50_50
REMARK                            x       y       z     vdW  Elec       q    Type
REMARK                         _______ _______ _______ _____ _____    ______ ____
ROOT
ATOM      1  C   UNL     1       3.523  -1.892 -30.317  0.00  0.00    +0.230 C 
ENDROOT
BRANCH   1   2
ATOM      2  O   UNL     1       4.288  -0.696 -30.481  0.00  0.00    -0.550 OA
ATOM      3  H   UNL     1       4.465  -0.466 -31.404  0.00  0.00    +0.370 HD
ENDBRANCH   1   2
BRANCH   1   4
ATOM      4  C   UNL     1       3.414  -2.228 -28.828  0.00  0.00    +0.150 C 
BRANCH   4  10
ATOM      5  C   UNL     1       1.846  -2.569 -27.014  0.00  0.00    +0.140 C 
ATOM      6  C   UNL     1       0.372  -2.811 -26.687  0.00  0.00    +0.200 C 
ATOM      7  N   UNL     1      -0.427  -1.671 -27.160  0.00  0.00    -0.530 NA
ATOM      8  C   UNL     1      -0.273  -1.491 -28.610  0.00  0.00    +0.180 C 
ATOM      9  C   UNL     1       1.203  -1.249 -28.938  0.00  0.00    +0.200 C 
ATOM     10  N   UNL     1       2.001  -2.388 -28.465  0.00  0.00    -0.510 NA
BRANCH   5  13
ATOM     11  N   UNL     1       3.345  -3.703 -25.406  0.00  0.00    -0.720 N 
ATOM     12  H   UNL     1       3.312  -2.902 -24.859  0.00  0.00    +0.400 HD
ATOM     13  C   UNL     1       2.662  -3.755 -26.566  0.00  0.00    +0.520 C 
ATOM     14  O   UNL     1       2.704  -4.756 -27.250  0.00  0.00    -0.510 OA
BRANCH  11  16
ATOM     15  C   UNL     1       4.937  -4.480 -23.721  0.00  0.00    +0.030 C 
ATOM     16  C   UNL     1       4.138  -4.854 -24.970  0.00  0.00    +0.170 C 
ATOM     17  C   UNL     1       3.205  -6.023 -24.647  0.00  0.00    +0.030 C 
ATOM     18  C   UNL     1       5.100  -5.264 -26.088  0.00  0.00    +0.030 C 
ENDBRANCH  11  16
ENDBRANCH   5  13
BRANCH   7  19
ATOM     19  C   UNL     1      -1.841  -1.831 -26.796  0.00  0.00    +0.240 C 
BRANCH  19  20
ATOM     20  C   UNL     1      -1.981  -1.791 -25.296  0.00  0.00    -0.140 A 
ATOM     21  C   UNL     1      -1.582  -0.671 -24.584  0.00  0.00    +0.080 A 
ATOM     22  C   UNL     1      -1.731  -0.678 -23.205  0.00  0.00    -0.030 A 
ATOM     23  C   UNL     1      -2.268  -1.793 -22.592  0.00  0.00    +0.260 A 
ATOM     24  N   UNL     1      -2.636  -2.842 -23.301  0.00  0.00    -0.480 NA
ATOM     25  C   UNL     1      -2.515  -2.868 -24.614  0.00  0.00    +0.260 A 
ENDBRANCH  19  20
ENDBRANCH   7  19
ENDBRANCH   4  10
ENDBRANCH   1   4
BRANCH   1  26
ATOM     26  C   UNL     1       4.214  -3.043 -31.051  0.00  0.00    +0.030 C 
BRANCH  26  27
ATOM     27  C   UNL     1       3.640  -3.164 -32.464  0.00  0.00    +0.000 C 
BRANCH  27  28
ATOM     28  C   UNL     1       4.613  -2.575 -33.454  0.00  0.00    +0.520 C 
ATOM     29  N   UNL     1       5.276  -3.380 -34.307  0.00  0.00    -0.700 N 
ATOM     30  H   UNL     1       5.062  -4.325 -34.348  0.00  0.00    +0.410 HD
ATOM     31  O   UNL     1       4.799  -1.377 -33.481  0.00  0.00    -0.550 OA
BRANCH  29  32
ATOM     32  C   UNL     1       6.321  -2.828 -35.172  0.00  0.00    +0.300 C 
ATOM     33  C   UNL     1       7.681  -3.332 -34.741  0.00  0.00    -0.110 A 
ATOM     34  C   UNL     1       8.232  -3.458 -33.477  0.00  0.00    +0.030 A 
ATOM     35  C   UNL     1       9.513  -3.950 -33.322  0.00  0.00    +0.000 A 
ATOM     36  C   UNL     1      10.249  -4.319 -34.433  0.00  0.00    +0.010 A 
ATOM     37  C   UNL     1       9.701  -4.195 -35.695  0.00  0.00    +0.010 A 
ATOM     38  C   UNL     1       8.417  -3.701 -35.852  0.00  0.00    -0.090 A 
ATOM     39  C   UNL     1       7.601  -3.471 -37.105  0.00  0.00    +0.070 C 
ATOM     40  C   UNL     1       6.141  -3.333 -36.620  0.00  0.00    +0.180 C 
BRANCH  40  41
ATOM     41  O   UNL     1       5.478  -4.599 -36.638  0.00  0.00    -0.550 OA
ATOM     42  H   UNL     1       5.697  -5.169 -35.889  0.00  0.00    +0.380 HD
ENDBRANCH  40  41
ENDBRANCH  29  32
ENDBRANCH  27  28
BRANCH  27  43
ATOM     43  C   UNL     1       2.313  -2.406 -32.542  0.00  0.00    +0.110 C 
BRANCH  43  44
ATOM     44  C   UNL     1       1.553  -2.849 -33.765  0.00  0.00    -0.090 A 
ATOM     45  C   UNL     1       1.163  -1.919 -34.711  0.00  0.00    +0.000 A 
ATOM     46  C   UNL     1       0.465  -2.325 -35.833  0.00  0.00    +0.000 A 
ATOM     47  C   UNL     1       0.157  -3.661 -36.010  0.00  0.00    +0.010 A 
ATOM     48  C   UNL     1       0.548  -4.591 -35.065  0.00  0.00    +0.000 A 
ATOM     49  C   UNL     1       1.249  -4.187 -33.945  0.00  0.00    +0.010 A 
ENDBRANCH  43  44
ENDBRANCH  27  43
ENDBRANCH  26  27
ENDBRANCH   1  26
TORSDOF 14
ENDMDL
MODEL 9
REMARK VINA RESULT:      -7.5     22.261     25.376
REMARK  Name = ZINC000022448696
REMARK  17 active torsions:
REMARK  status: ('A' for Active; 'I' for Inactive)
REMARK    1  A    between atoms: C1_1  and  C2_2
REMARK    2  A    between atoms: C2_2  and  C3_3
REMARK    3  A    between atoms: C2_2  and  C4_4
REMARK    4  A    between atoms: C2_2  and  N5_5
REMARK    5  A    between atoms: C6_6  and  C8_8
REMARK    6  A    between atoms: N11_11  and  C12_12
REMARK    7  A    between atoms: C12_12  and  C13_13
REMARK    8  A    between atoms: N21_21  and  C22_22
REMARK    9  A    between atoms: C22_22  and  C23_23
REMARK   10  A    between atoms: C23_23  and  O25_25
REMARK   11  A    between atoms: C23_23  and  C26_26
REMARK   12  A    between atoms: C26_26  and  C27_27
REMARK   13  A    between atoms: C27_27  and  C29_29
REMARK   14  A    between atoms: C27_27  and  C36_36
REMARK   15  A    between atoms: C29_29  and  C30_30
REMARK   16  A    between atoms: N38_38  and  C39_39
REMARK   17  A    between atoms: C48_48  and  O50_50
REMARK                            x       y       z     vdW  Elec       q    Type
REMARK                         _______ _______ _______ _____ _____    ______ ____
ROOT
ATOM      1  C   UNL     1       0.834  -2.268 -24.078  0.00  0.00    +0.230 C 
ENDROOT
BRANCH   1   2
ATOM      2  O   UNL     1      -0.505  -1.787 -23.945  0.00  0.00    -0.550 OA
ATOM      3  H   UNL     1      -1.106  -2.102 -24.635  0.00  0.00    +0.370 HD
ENDBRANCH   1   2
BRANCH   1   4
ATOM      4  C   UNL     1       0.928  -3.183 -25.301  0.00  0.00    +0.150 C 
BRANCH   4  10
ATOM      5  C   UNL     1       2.499  -3.597 -27.097  0.00  0.00    +0.140 C 
ATOM      6  C   UNL     1       3.464  -2.921 -28.074  0.00  0.00    +0.200 C 
ATOM      7  N   UNL     1       2.715  -2.003 -28.943  0.00  0.00    -0.530 NA
ATOM      8  C   UNL     1       2.026  -0.976 -28.149  0.00  0.00    +0.180 C 
ATOM      9  C   UNL     1       1.060  -1.652 -27.172  0.00  0.00    +0.200 C 
ATOM     10  N   UNL     1       1.810  -2.570 -26.303  0.00  0.00    -0.510 NA
BRANCH   5  13
ATOM     11  N   UNL     1       4.033  -3.989 -25.197  0.00  0.00    -0.720 N 
ATOM     12  H   UNL     1       4.087  -3.027 -25.083  0.00  0.00    +0.400 HD
ATOM     13  C   UNL     1       3.270  -4.509 -26.178  0.00  0.00    +0.520 C 
ATOM     14  O   UNL     1       3.203  -5.712 -26.321  0.00  0.00    -0.510 OA
BRANCH  11  16
ATOM     15  C   UNL     1       5.696  -5.780 -25.130  0.00  0.00    +0.030 C 
ATOM     16  C   UNL     1       4.782  -4.875 -24.303  0.00  0.00    +0.170 C 
ATOM     17  C   UNL     1       5.628  -4.036 -23.344  0.00  0.00    +0.030 C 
ATOM     18  C   UNL     1       3.803  -5.735 -23.501  0.00  0.00    +0.030 C 
ENDBRANCH  11  16
ENDBRANCH   5  13
BRANCH   7  19
ATOM     19  C   UNL     1       3.595  -1.390 -29.946  0.00  0.00    +0.240 C 
BRANCH  19  20
ATOM     20  C   UNL     1       3.216  -1.887 -31.318  0.00  0.00    -0.140 A 
ATOM     21  C   UNL     1       2.254  -2.873 -31.465  0.00  0.00    +0.080 A 
ATOM     22  C   UNL     1       1.936  -3.299 -32.747  0.00  0.00    -0.030 A 
ATOM     23  C   UNL     1       2.585  -2.730 -33.825  0.00  0.00    +0.260 A 
ATOM     24  N   UNL     1       3.497  -1.794 -33.647  0.00  0.00    -0.480 NA
ATOM     25  C   UNL     1       3.820  -1.361 -32.445  0.00  0.00    +0.260 A 
ENDBRANCH  19  20
ENDBRANCH   7  19
ENDBRANCH   4  10
ENDBRANCH   1   4
BRANCH   1  26
ATOM     26  C   UNL     1       1.221  -3.053 -22.823  0.00  0.00    +0.030 C 
BRANCH  26  27
ATOM     27  C   UNL     1       1.277  -2.103 -21.625  0.00  0.00    +0.000 C 
BRANCH  27  28
ATOM     28  C   UNL     1       2.647  -2.167 -20.998  0.00  0.00    +0.520 C 
ATOM     29  N   UNL     1       3.204  -1.053 -20.484  0.00  0.00    -0.700 N 
ATOM     30  H   UNL     1       2.691  -0.232 -20.434  0.00  0.00    +0.410 HD
ATOM     31  O   UNL     1       3.246  -3.220 -20.957  0.00  0.00    -0.550 OA
BRANCH  29  32
ATOM     32  C   UNL     1       4.587  -1.082 -20.000  0.00  0.00    +0.300 C 
ATOM     33  C   UNL     1       5.474  -0.241 -20.893  0.00  0.00    -0.110 A 
ATOM     34  C   UNL     1       5.533  -0.155 -22.273  0.00  0.00    +0.030 A 
ATOM     35  C   UNL     1       6.439   0.695 -22.879  0.00  0.00    +0.000 A 
ATOM     36  C   UNL     1       7.288   1.463 -22.104  0.00  0.00    +0.010 A 
ATOM     37  C   UNL     1       7.230   1.378 -20.726  0.00  0.00    +0.010 A 
ATOM     38  C   UNL     1       6.324   0.527 -20.118  0.00  0.00    -0.090 A 
ATOM     39  C   UNL     1       6.065   0.254 -18.652  0.00  0.00    +0.070 C 
ATOM     40  C   UNL     1       4.681  -0.430 -18.604  0.00  0.00    +0.180 C 
BRANCH  40  41
ATOM     41  O   UNL     1       3.643   0.534 -18.422  0.00  0.00    -0.550 OA
ATOM     42  H   UNL     1       3.955   1.449 -18.397  0.00  0.00    +0.380 HD
ENDBRANCH  40  41
ENDBRANCH  29  32
ENDBRANCH  27  28
BRANCH  27  43
ATOM     43  C   UNL     1       0.226  -2.518 -20.594  0.00  0.00    +0.110 C 
BRANCH  43  44
ATOM     44  C   UNL     1      -0.445  -1.289 -20.037  0.00  0.00    -0.090 A 
ATOM     45  C   UNL     1      -0.049  -0.780 -18.814  0.00  0.00    +0.000 A 
ATOM     46  C   UNL     1      -0.664   0.348 -18.303  0.00  0.00    +0.000 A 
ATOM     47  C   UNL     1      -1.675   0.966 -19.015  0.00  0.00    +0.010 A 
ATOM     48  C   UNL     1      -2.070   0.458 -20.238  0.00  0.00    +0.000 A 
ATOM     49  C   UNL     1      -1.453  -0.667 -20.752  0.00  0.00    +0.010 A 
ENDBRANCH  43  44
ENDBRANCH  27  43
ENDBRANCH  26  27
ENDBRANCH   1  26
TORSDOF 14
ENDMDL
