@<TRIPOS>MOLECULE
ZINC000001550477
67    71    1     0     0
SMALL
USER_CHARGES
@<TRIPOS>ATOM
1      C1      0.2298    0.1979    0.8495 C.3      1 ZINC000001550477   -0.6500
2      S2      0.0642   -1.5876    0.5757 S.o2     1 ZINC000001550477    2.4300
3      O3      0.7663   -2.2706    1.6052 O.2      1 ZINC000001550477   -0.9200
4      O4     -1.3075   -1.8865    0.3552 O.2      1 ZINC000001550477   -0.9200
5      C5      0.9626   -1.8125   -0.9840 C.3      1 ZINC000001550477   -0.6800
6      C6      0.9297   -3.2892   -1.3832 C.3      1 ZINC000001550477    0.0000
7      N7      1.6573   -3.4713   -2.6463 N.4      1 ZINC000001550477   -0.5100
8      H8      1.2212   -2.9179   -3.3685 H        1 ZINC000001550477    0.4300
9      H9      2.6149   -3.1760   -2.5284 H        1 ZINC000001550477    0.4300
10     C10     1.6257   -4.8891   -3.0296 C.3      1 ZINC000001550477    0.0900
11     C11     2.3722   -5.0759   -4.3253 C.2      1 ZINC000001550477   -0.1200
12     C12     3.6861   -5.3501   -4.4424 C.2      1 ZINC000001550477   -0.1200
13     C13     3.9673   -5.4430   -5.8202 C.2      1 ZINC000001550477   -0.2000
14     C14     2.7968   -5.2179   -6.4749 C.2      1 ZINC000001550477    0.1000
15     C15     2.6093   -5.2171   -7.9404 C.ar     1 ZINC000001550477   -0.0600
16     C16     3.7033   -5.4710   -8.7841 C.ar     1 ZINC000001550477   -0.0500
17     C17     3.5557   -5.4756  -10.1360 C.ar     1 ZINC000001550477   -0.0900
18     C18     2.2979   -5.2249  -10.7038 C.ar     1 ZINC000001550477    0.2100
19     N19     2.1113   -5.2212  -12.0322 N.ar     1 ZINC000001550477   -0.5400
20     C20     0.9242   -4.9841  -12.5377 C.ar     1 ZINC000001550477    0.3600
21     N21    -0.1413   -4.7392  -11.7918 N.ar     1 ZINC000001550477   -0.5800
22     C22    -0.0695   -4.7188  -10.4676 C.ar     1 ZINC000001550477    0.4700
23     N23    -1.1872   -4.4627   -9.7014 N.pl3    1 ZINC000001550477   -0.6300
24     C24    -2.4410   -4.3393  -10.3117 C.ar     1 ZINC000001550477    0.1200
25     C25    -2.7525   -5.1137  -11.4212 C.ar     1 ZINC000001550477   -0.0600
26     C26    -3.9898   -4.9917  -12.0233 C.ar     1 ZINC000001550477   -0.1800
27     C27    -4.9213   -4.0965  -11.5198 C.ar     1 ZINC000001550477    0.1400
28     O28    -6.1392   -3.9772  -12.1132 O.3      1 ZINC000001550477   -0.2900
29     C29    -6.3905   -4.8049  -13.2507 C.3      1 ZINC000001550477    0.1000
30     C30    -7.7795   -4.5366  -13.7701 C.ar     1 ZINC000001550477   -0.0700
31     C31    -8.8505   -5.2644  -13.2864 C.ar     1 ZINC000001550477   -0.1000
32     C32   -10.1254   -5.0193  -13.7620 C.ar     1 ZINC000001550477   -0.0900
33     C33   -10.3303   -4.0465  -14.7216 C.ar     1 ZINC000001550477   -0.1400
34     C34    -9.2582   -3.3164  -15.2067 C.ar     1 ZINC000001550477    0.1000
35     F35    -9.4573   -2.3650  -16.1449 F        1 ZINC000001550477   -0.1400
36     C36    -7.9828   -3.5590  -14.7259 C.ar     1 ZINC000001550477   -0.1300
37     C37    -4.6114   -3.3222  -10.4097 C.ar     1 ZINC000001550477   -0.0500
38     Cl38   -5.7784   -2.2020   -9.7796 Cl       1 ZINC000001550477   -0.0400
39     C39    -3.3759   -3.4464   -9.8041 C.ar     1 ZINC000001550477   -0.1000
40     C40     1.1875   -4.9679   -9.8614 C.ar     1 ZINC000001550477   -0.2000
41     C41     1.3519   -4.9709   -8.4747 C.ar     1 ZINC000001550477   -0.0300
42     O42     1.8368   -5.0025   -5.5550 O.3      1 ZINC000001550477   -0.1700
43     H43     1.2859    0.4578    0.9229 H        1 ZINC000001550477    0.1400
44     H44    -0.2198    0.7367    0.0154 H        1 ZINC000001550477    0.1300
45     H45    -0.2770    0.4722    1.7746 H        1 ZINC000001550477    0.1400
46     H46     0.4915   -1.2147   -1.7642 H        1 ZINC000001550477    0.1600
47     H47     1.9971   -1.4935   -0.8567 H        1 ZINC000001550477    0.1600
48     H48     1.4009   -3.8870   -0.6030 H        1 ZINC000001550477    0.1500
49     H49    -0.1047   -3.6082   -1.5106 H        1 ZINC000001550477    0.1500
50     H50     2.0969   -5.4869   -2.2494 H        1 ZINC000001550477    0.1600
51     H51     0.5913   -5.2081   -3.1569 H        1 ZINC000001550477    0.1500
52     H52     4.3906   -5.4750   -3.6334 H        1 ZINC000001550477    0.1700
53     H53     4.9270   -5.6519   -6.2694 H        1 ZINC000001550477    0.1700
54     H54     4.6745   -5.6648   -8.3535 H        1 ZINC000001550477    0.1400
55     H55     4.4063   -5.6718  -10.7718 H        1 ZINC000001550477    0.1500
56     H56     0.8112   -4.9887  -13.6118 H        1 ZINC000001550477    0.2000
57     H57    -1.1046   -4.3681   -8.7395 H        1 ZINC000001550477    0.4200
58     H58    -2.0274   -5.8112  -11.8138 H        1 ZINC000001550477    0.1400
59     H59    -4.2316   -5.5937  -12.8867 H        1 ZINC000001550477    0.1400
60     H60    -5.6618   -4.5823  -14.0302 H        1 ZINC000001550477    0.0800
61     H61    -6.3063   -5.8529  -12.9632 H        1 ZINC000001550477    0.0800
62     H62    -8.6912   -6.0252  -12.5366 H        1 ZINC000001550477    0.1300
63     H63   -10.9614   -5.5888  -13.3836 H        1 ZINC000001550477    0.1400
64     H64   -11.3262   -3.8557  -15.0935 H        1 ZINC000001550477    0.1400
65     H65    -7.1459   -2.9901  -15.1031 H        1 ZINC000001550477    0.1400
66     H66    -3.1347   -2.8444   -8.9404 H        1 ZINC000001550477    0.1400
67     H67     0.5105   -4.7803   -7.8250 H        1 ZINC000001550477    0.1300
@<TRIPOS>BOND
1     1     2     1
2     1     43    1
3     1     44    1
4     1     45    1
5     2     3     2
6     2     4     2
7     2     5     1
8     5     6     1
9     5     46    1
10    5     47    1
11    6     7     1
12    6     48    1
13    6     49    1
14    7     8     1
15    7     9     1
16    7     10    1
17    10    11    1
18    10    50    1
19    10    51    1
20    11    42    1
21    11    12    2
22    12    13    1
23    12    52    1
24    13    14    2
25    13    53    1
26    14    15    1
27    14    42    1
28    15    41    ar
29    15    16    ar
30    16    17    ar
31    16    54    1
32    17    18    ar
33    17    55    1
34    18    40    ar
35    18    19    ar
36    19    20    ar
37    20    21    ar
38    20    56    1
39    21    22    ar
40    22    23    1
41    22    40    ar
42    23    24    1
43    23    57    1
44    24    39    ar
45    24    25    ar
46    25    26    ar
47    25    58    1
48    26    27    ar
49    26    59    1
50    27    28    1
51    27    37    ar
52    28    29    1
53    29    30    1
54    29    60    1
55    29    61    1
56    30    36    ar
57    30    31    ar
58    31    32    ar
59    31    62    1
60    32    33    ar
61    32    63    1
62    33    34    ar
63    33    64    1
64    34    35    1
65    34    36    ar
66    36    65    1
67    37    38    1
68    37    39    ar
69    39    66    1
70    40    41    ar
71    41    67    1
@<TRIPOS>SUBSTRUCTURE
1   ZINC000001550477 1     RESIDUE    1   A     ZIN   1
