REMARK  Name = ZINC000001550477
REMARK  11 active torsions:
REMARK  status: ('A' for Active; 'I' for Inactive)
REMARK    1  A    between atoms: C1_1  and  S2_2
REMARK    2  A    between atoms: S2_2  and  C5_5
REMARK    3  A    between atoms: C5_5  and  C6_6
REMARK    4  A    between atoms: C6_6  and  N7_7
REMARK    5  A    between atoms: N7_7  and  C10_10
REMARK    6  A    between atoms: C10_10  and  C11_11
REMARK    7  A    between atoms: C14_14  and  C15_15
REMARK    8  A    between atoms: N23_23  and  C24_24
REMARK    9  A    between atoms: C27_27  and  O28_28
REMARK   10  A    between atoms: O28_28  and  C29_29
REMARK   11  A    between atoms: C29_29  and  C30_30
REMARK                            x       y       z     vdW  Elec       q    Type
REMARK                         _______ _______ _______ _____ _____    ______ ____
ROOT
ATOM      1  C   UNL     1       2.609  -5.217  -7.940  0.00  0.00    -0.060 A 
ATOM      2  C   UNL     1       3.703  -5.471  -8.784  0.00  0.00    +0.090 A 
ATOM      3  C   UNL     1       3.556  -5.476 -10.136  0.00  0.00    +0.060 A 
ATOM      4  C   UNL     1       2.298  -5.225 -10.704  0.00  0.00    +0.210 A 
ATOM      5  N   UNL     1       2.111  -5.221 -12.032  0.00  0.00    -0.540 NA
ATOM      6  C   UNL     1       0.924  -4.984 -12.538  0.00  0.00    +0.560 A 
ATOM      7  N   UNL     1      -0.141  -4.739 -11.792  0.00  0.00    -0.580 NA
ATOM      8  C   UNL     1      -0.070  -4.719 -10.468  0.00  0.00    +0.470 A 
ATOM      9  N   UNL     1      -1.187  -4.463  -9.701  0.00  0.00    -0.630 N 
ATOM     10  H   UNL     1      -1.105  -4.368  -8.739  0.00  0.00    +0.420 HD
ATOM     11  C   UNL     1       1.188  -4.968  -9.861  0.00  0.00    -0.200 A 
ATOM     12  C   UNL     1       1.352  -4.971  -8.475  0.00  0.00    +0.100 A 
ENDROOT
BRANCH   9  13
ATOM     13  C   UNL     1      -2.441  -4.339 -10.312  0.00  0.00    +0.120 A 
ATOM     14  C   UNL     1      -2.752  -5.114 -11.421  0.00  0.00    +0.080 A 
ATOM     15  C   UNL     1      -3.990  -4.992 -12.023  0.00  0.00    -0.040 A 
ATOM     16  C   UNL     1      -4.921  -4.096 -11.520  0.00  0.00    +0.140 A 
ATOM     17  C   UNL     1      -4.611  -3.322 -10.410  0.00  0.00    -0.050 A 
ATOM     18 CL   UNL     1      -5.778  -2.202  -9.780  0.00  0.00    -0.040 Cl
ATOM     19  C   UNL     1      -3.376  -3.446  -9.804  0.00  0.00    +0.040 A 
BRANCH  16  20
ATOM     20  O   UNL     1      -6.139  -3.977 -12.113  0.00  0.00    -0.290 OA
BRANCH  20  21
ATOM     21  C   UNL     1      -6.391  -4.805 -13.251  0.00  0.00    +0.260 C 
BRANCH  21  22
ATOM     22  C   UNL     1      -7.779  -4.537 -13.770  0.00  0.00    -0.070 A 
ATOM     23  C   UNL     1      -8.851  -5.264 -13.286  0.00  0.00    +0.030 A 
ATOM     24  C   UNL     1     -10.125  -5.019 -13.762  0.00  0.00    +0.050 A 
ATOM     25  C   UNL     1     -10.330  -4.046 -14.722  0.00  0.00    +0.000 A 
ATOM     26  C   UNL     1      -9.258  -3.316 -15.207  0.00  0.00    +0.100 A 
ATOM     27  F   UNL     1      -9.457  -2.365 -16.145  0.00  0.00    -0.140 F 
ATOM     28  C   UNL     1      -7.983  -3.559 -14.726  0.00  0.00    +0.010 A 
ENDBRANCH  21  22
ENDBRANCH  20  21
ENDBRANCH  16  20
ENDBRANCH   9  13
BRANCH   1  32
ATOM     29  C   UNL     1       2.372  -5.076  -4.325  0.00  0.00    -0.120 A 
ATOM     30  C   UNL     1       3.686  -5.350  -4.442  0.00  0.00    +0.050 A 
ATOM     31  C   UNL     1       3.967  -5.443  -5.820  0.00  0.00    -0.030 A 
ATOM     32  C   UNL     1       2.797  -5.218  -6.475  0.00  0.00    +0.100 A 
ATOM     33  O   UNL     1       1.837  -5.003  -5.555  0.00  0.00    -0.170 OA
BRANCH  29  34
ATOM     34  C   UNL     1       1.626  -4.889  -3.030  0.00  0.00    +0.400 C 
BRANCH  34  35
ATOM     35  N   UNL     1       1.657  -3.471  -2.646  0.00  0.00    -0.510 N 
ATOM     36  H   UNL     1       2.615  -3.176  -2.528  0.00  0.00    +0.430 HD
ATOM     37  H   UNL     1       1.221  -2.918  -3.369  0.00  0.00    +0.430 HD
BRANCH  35  38
ATOM     38  C   UNL     1       0.930  -3.289  -1.383  0.00  0.00    +0.300 C 
BRANCH  38  39
ATOM     39  C   UNL     1       0.963  -1.812  -0.984  0.00  0.00    -0.360 C 
BRANCH  39  41
ATOM     40  C   UNL     1       0.230   0.198   0.850  0.00  0.00    -0.240 C 
ATOM     41  S   UNL     1       0.064  -1.588   0.576  0.00  0.00    +2.430 S 
ATOM     42  O   UNL     1      -1.308  -1.887   0.355  0.00  0.00    -0.920 OA
ATOM     43  O   UNL     1       0.766  -2.271   1.605  0.00  0.00    -0.920 OA
ENDBRANCH  39  41
ENDBRANCH  38  39
ENDBRANCH  35  38
ENDBRANCH  34  35
ENDBRANCH  29  34
ENDBRANCH   1  32
TORSDOF 10
