@<TRIPOS>MOLECULE
ZINC000019685788
87    90    1     0     0
SMALL
USER_CHARGES
@<TRIPOS>ATOM
1      C1      1.3471    4.9228   -0.4376 C.3      1 ZINC000019685788    0.0300
2      O2      0.8068    3.6549   -0.0603 O.3      1 ZINC000019685788   -0.3500
3      C3      0.6335    2.7458   -1.0426 C.2      1 ZINC000019685788    0.5300
4      O4      0.9338    3.0238   -2.1886 O.2      1 ZINC000019685788   -0.4900
5      C5      0.1031    1.4703   -0.7401 C.2      1 ZINC000019685788   -0.2300
6      C6     -1.2240    1.3318   -0.5770 C.2      1 ZINC000019685788    0.2000
7      C7     -2.1199    2.5363   -0.7098 C.3      1 ZINC000019685788   -0.1400
8      N8     -1.7713    0.1106   -0.2924 N.pl3    1 ZINC000019685788   -0.6200
9      C9     -1.0582   -1.0350   -0.5184 C.2      1 ZINC000019685788    0.2700
10     C10    -1.7772   -2.3576   -0.5887 C.3      1 ZINC000019685788   -0.1300
11     C11     0.2759   -0.9953   -0.6782 C.2      1 ZINC000019685788   -0.2900
12     C12     0.9800   -2.1980   -0.9180 C.2      1 ZINC000019685788    0.5300
13     O13     0.3781   -3.2538   -0.9779 O.2      1 ZINC000019685788   -0.5000
14     O14     2.3195   -2.1747   -1.0806 O.3      1 ZINC000019685788   -0.3500
15     C15     2.9658   -3.4266   -1.3195 C.3      1 ZINC000019685788    0.1100
16     C16     2.7112   -4.3656   -0.1387 C.3      1 ZINC000019685788   -0.2100
17     C17     2.4073   -4.0530   -2.5988 C.3      1 ZINC000019685788   -0.1900
18     C18     4.4710   -3.2016   -1.4769 C.3      1 ZINC000019685788    0.0000
19     N19     5.0667   -2.9366   -0.1605 N.4      1 ZINC000019685788   -0.3900
20     H20     4.8231   -3.6814    0.4751 H        1 ZINC000019685788    0.4200
21     C21     4.5559   -1.6616    0.3604 C.3      1 ZINC000019685788   -0.0700
22     C22     6.5281   -2.8622   -0.2904 C.3      1 ZINC000019685788   -0.0100
23     C23     7.1563   -2.7107    1.0964 C.3      1 ZINC000019685788   -0.1400
24     C24     8.6784   -2.6332    0.9611 C.3      1 ZINC000019685788    0.0100
25     C25     9.2895   -2.3613    2.3115 C.ar     1 ZINC000019685788   -0.0800
26     C26    10.1549   -1.2960    2.4767 C.ar     1 ZINC000019685788   -0.1000
27     C27    10.7155   -1.0466    3.7154 C.ar     1 ZINC000019685788   -0.1100
28     C28    10.4104   -1.8621    4.7890 C.ar     1 ZINC000019685788   -0.1100
29     C29     9.5443   -2.9269    4.6241 C.ar     1 ZINC000019685788   -0.1200
30     C30     8.9804   -3.1737    3.3864 C.ar     1 ZINC000019685788   -0.1200
31     C31     9.2024   -3.9412    0.4267 C.ar     1 ZINC000019685788   -0.0900
32     C32     8.8643   -5.1277    1.0502 C.ar     1 ZINC000019685788   -0.1200
33     C33     9.3450   -6.3275    0.5600 C.ar     1 ZINC000019685788   -0.1200
34     C34    10.1635   -6.3408   -0.5539 C.ar     1 ZINC000019685788   -0.1100
35     C35    10.5009   -5.1544   -1.1779 C.ar     1 ZINC000019685788   -0.1100
36     C36    10.0167   -3.9549   -0.6903 C.ar     1 ZINC000019685788   -0.1100
37     C37     1.0344    0.2981   -0.6140 C.3      1 ZINC000019685788    0.0900
38     H38     1.7667    0.3252   -1.4209 H        1 ZINC000019685788    0.1000
39     C39     1.7503    0.3883    0.7090 C.ar     1 ZINC000019685788   -0.0700
40     C40     1.0301    0.3551    1.8882 C.ar     1 ZINC000019685788   -0.0400
41     C41     1.6869    0.4378    3.1020 C.ar     1 ZINC000019685788   -0.1100
42     C42     3.0638    0.5534    3.1362 C.ar     1 ZINC000019685788   -0.0500
43     C43     3.7843    0.5858    1.9567 C.ar     1 ZINC000019685788   -0.0600
44     N44     5.2588    0.7101    1.9933 N.pl3    1 ZINC000019685788    0.0200
45     O45     5.8374    0.7838    3.0626 O.2      1 ZINC000019685788   -0.1400
46     O46     5.8936    0.7386    0.9542 O.2      1 ZINC000019685788   -0.1700
47     C47     3.1281    0.4987    0.7434 C.ar     1 ZINC000019685788   -0.0700
48     H48     1.4346    5.5575    0.4442 H        1 ZINC000019685788    0.1100
49     H49     2.3323    4.7802   -0.8818 H        1 ZINC000019685788    0.0600
50     H50     0.6867    5.3978   -1.1631 H        1 ZINC000019685788    0.0700
51     H51    -2.4675    2.6188   -1.7396 H        1 ZINC000019685788    0.1000
52     H52    -2.9766    2.4269   -0.0448 H        1 ZINC000019685788    0.0900
53     H53    -1.5636    3.4343   -0.4410 H        1 ZINC000019685788    0.0900
54     H54    -2.6688    0.0568    0.0716 H        1 ZINC000019685788    0.4300
55     H55    -2.8449   -2.1992   -0.4376 H        1 ZINC000019685788    0.0700
56     H56    -1.6117   -2.8096   -1.5667 H        1 ZINC000019685788    0.1100
57     H57    -1.3948   -3.0206    0.1874 H        1 ZINC000019685788    0.1100
58     H58     1.6389   -4.5259   -0.0266 H        1 ZINC000019685788    0.1200
59     H59     3.2042   -5.3205   -0.3210 H        1 ZINC000019685788    0.0900
60     H60     3.1091   -3.9194    0.7727 H        1 ZINC000019685788    0.0500
61     H61     2.5887   -3.3840   -3.4401 H        1 ZINC000019685788    0.0800
62     H62     2.9003   -5.0079   -2.7811 H        1 ZINC000019685788    0.0800
63     H63     1.3350   -4.2132   -2.4867 H        1 ZINC000019685788    0.1000
64     H64     4.9280   -4.0914   -1.9100 H        1 ZINC000019685788    0.1500
65     H65     4.6442   -2.3483   -2.1326 H        1 ZINC000019685788    0.1500
66     H66     3.4894   -1.7542    0.5658 H        1 ZINC000019685788    0.1300
67     H67     5.0824   -1.4079    1.2804 H        1 ZINC000019685788    0.1000
68     H68     4.7167   -0.8766   -0.3786 H        1 ZINC000019685788    0.1400
69     H69     6.8981   -3.7740   -0.7593 H        1 ZINC000019685788    0.1400
70     H70     6.7949   -2.0031   -0.9059 H        1 ZINC000019685788    0.1400
71     H71     6.7863   -1.7989    1.5653 H        1 ZINC000019685788    0.0900
72     H72     6.8896   -3.5698    1.7119 H        1 ZINC000019685788    0.0900
73     H73     8.9416   -1.8286    0.2745 H        1 ZINC000019685788    0.1000
74     H74    10.3932   -0.6589    1.6379 H        1 ZINC000019685788    0.1200
75     H75    11.3921   -0.2148    3.8443 H        1 ZINC000019685788    0.1300
76     H76    10.8489   -1.6677    5.7567 H        1 ZINC000019685788    0.1200
77     H77     9.3062   -3.5642    5.4628 H        1 ZINC000019685788    0.1200
78     H78     8.3037   -4.0055    3.2575 H        1 ZINC000019685788    0.1200
79     H79     8.2249   -5.1173    1.9205 H        1 ZINC000019685788    0.1200
80     H80     9.0815   -7.2545    1.0476 H        1 ZINC000019685788    0.1200
81     H81    10.5397   -7.2781   -0.9364 H        1 ZINC000019685788    0.1300
82     H82    11.1406   -5.1647   -2.0480 H        1 ZINC000019685788    0.1300
83     H83    10.2802   -3.0280   -1.1778 H        1 ZINC000019685788    0.1200
84     H84    -0.0458    0.2647    1.8615 H        1 ZINC000019685788    0.1400
85     H85     1.1241    0.4125    4.0234 H        1 ZINC000019685788    0.1500
86     H86     3.5768    0.6187    4.0843 H        1 ZINC000019685788    0.1600
87     H87     3.6909    0.5240   -0.1780 H        1 ZINC000019685788    0.1500
@<TRIPOS>BOND
1     1     2     1
2     1     48    1
3     1     49    1
4     1     50    1
5     2     3     1
6     3     4     2
7     3     5     1
8     5     37    1
9     5     6     2
10    6     7     1
11    6     8     1
12    7     51    1
13    7     52    1
14    7     53    1
15    8     9     1
16    8     54    1
17    9     10    1
18    9     11    2
19    10    55    1
20    10    56    1
21    10    57    1
22    11    12    1
23    11    37    1
24    12    13    2
25    12    14    1
26    14    15    1
27    15    16    1
28    15    17    1
29    15    18    1
30    16    58    1
31    16    59    1
32    16    60    1
33    17    61    1
34    17    62    1
35    17    63    1
36    18    19    1
37    18    64    1
38    18    65    1
39    19    20    1
40    19    21    1
41    19    22    1
42    21    66    1
43    21    67    1
44    21    68    1
45    22    23    1
46    22    69    1
47    22    70    1
48    23    24    1
49    23    71    1
50    23    72    1
51    24    25    1
52    24    31    1
53    24    73    1
54    25    30    ar
55    25    26    ar
56    26    27    ar
57    26    74    1
58    27    28    ar
59    27    75    1
60    28    29    ar
61    28    76    1
62    29    30    ar
63    29    77    1
64    30    78    1
65    31    36    ar
66    31    32    ar
67    32    33    ar
68    32    79    1
69    33    34    ar
70    33    80    1
71    34    35    ar
72    34    81    1
73    35    36    ar
74    35    82    1
75    36    83    1
76    37    38    1
77    37    39    1
78    39    47    ar
79    39    40    ar
80    40    41    ar
81    40    84    1
82    41    42    ar
83    41    85    1
84    42    43    ar
85    42    86    1
86    43    44    1
87    43    47    ar
88    44    45    2
89    44    46    2
90    47    87    1
@<TRIPOS>SUBSTRUCTURE
1   ZINC000019685788 1     RESIDUE    1   A     ZIN   1
