REMARK  Name = ZINC000019685788
REMARK  20 active torsions:
REMARK  status: ('A' for Active; 'I' for Inactive)
REMARK    1  A    between atoms: C1_1  and  O2_2
REMARK    2  A    between atoms: O2_2  and  C3_3
REMARK    3  A    between atoms: C3_3  and  C5_5
REMARK    4  A    between atoms: C6_6  and  C7_7
REMARK    5  A    between atoms: C9_9  and  C10_10
REMARK    6  A    between atoms: C11_11  and  C12_12
REMARK    7  A    between atoms: C12_12  and  O14_14
REMARK    8  A    between atoms: O14_14  and  C15_15
REMARK    9  A    between atoms: C15_15  and  C16_16
REMARK   10  A    between atoms: C15_15  and  C17_17
REMARK   11  A    between atoms: C15_15  and  C18_18
REMARK   12  A    between atoms: C18_18  and  N19_19
REMARK   13  A    between atoms: N19_19  and  C21_21
REMARK   14  A    between atoms: N19_19  and  C22_22
REMARK   15  A    between atoms: C22_22  and  C23_23
REMARK   16  A    between atoms: C23_23  and  C24_24
REMARK   17  A    between atoms: C24_24  and  C25_25
REMARK   18  A    between atoms: C24_24  and  C31_31
REMARK   19  A    between atoms: C37_37  and  C39_39
REMARK   20  A    between atoms: C43_43  and  N44_44
REMARK                            x       y       z     vdW  Elec       q    Type
REMARK                         _______ _______ _______ _____ _____    ______ ____
ROOT
ATOM      1  C   UNL     1       0.980  -2.198  -0.918  0.00  0.00    +0.530 C 
ATOM      2  O   UNL     1       0.378  -3.254  -0.978  0.00  0.00    -0.500 OA
ENDROOT
BRANCH   1   8
ATOM      3  C   UNL     1       0.103   1.470  -0.740  0.00  0.00    -0.230 C 
ATOM      4  C   UNL     1      -1.224   1.332  -0.577  0.00  0.00    +0.200 C 
ATOM      5  N   UNL     1      -1.771   0.111  -0.292  0.00  0.00    -0.620 N 
ATOM      6  H   UNL     1      -2.669   0.057   0.072  0.00  0.00    +0.430 HD
ATOM      7  C   UNL     1      -1.058  -1.035  -0.518  0.00  0.00    +0.270 C 
ATOM      8  C   UNL     1       0.276  -0.995  -0.678  0.00  0.00    -0.290 C 
ATOM      9  C   UNL     1      -1.777  -2.358  -0.589  0.00  0.00    +0.160 C 
ATOM     10  C   UNL     1      -2.120   2.536  -0.710  0.00  0.00    +0.140 C 
ATOM     11  C   UNL     1       1.034   0.298  -0.614  0.00  0.00    +0.190 C 
BRANCH  11  12
ATOM     12  C   UNL     1       1.750   0.388   0.709  0.00  0.00    -0.070 A 
ATOM     13  C   UNL     1       1.030   0.355   1.888  0.00  0.00    +0.100 A 
ATOM     14  C   UNL     1       1.687   0.438   3.102  0.00  0.00    +0.040 A 
ATOM     15  C   UNL     1       3.064   0.553   3.136  0.00  0.00    +0.110 A 
ATOM     16  C   UNL     1       3.784   0.586   1.957  0.00  0.00    -0.060 A 
ATOM     17  C   UNL     1       3.128   0.499   0.743  0.00  0.00    +0.080 A 
BRANCH  16  18
ATOM     18  N   UNL     1       5.259   0.710   1.993  0.00  0.00    +0.020 N 
ATOM     19  O   UNL     1       5.894   0.739   0.954  0.00  0.00    -0.170 OA
ATOM     20  O   UNL     1       5.837   0.784   3.063  0.00  0.00    -0.140 OA
ENDBRANCH  16  18
ENDBRANCH  11  12
BRANCH   3  21
ATOM     21  C   UNL     1       0.633   2.746  -1.043  0.00  0.00    +0.530 C 
ATOM     22  O   UNL     1       0.934   3.024  -2.189  0.00  0.00    -0.490 OA
BRANCH  21  24
ATOM     23  C   UNL     1       1.347   4.923  -0.438  0.00  0.00    +0.270 C 
ATOM     24  O   UNL     1       0.807   3.655  -0.060  0.00  0.00    -0.350 OA
ENDBRANCH  21  24
ENDBRANCH   3  21
ENDBRANCH   1   8
BRANCH   1  25
ATOM     25  O   UNL     1       2.320  -2.175  -1.081  0.00  0.00    -0.350 OA
BRANCH  25  26
ATOM     26  C   UNL     1       2.966  -3.427  -1.319  0.00  0.00    +0.110 C 
ATOM     27  C   UNL     1       2.407  -4.053  -2.599  0.00  0.00    +0.070 C 
ATOM     28  C   UNL     1       2.711  -4.366  -0.139  0.00  0.00    +0.050 C 
BRANCH  26  29
ATOM     29  C   UNL     1       4.471  -3.202  -1.477  0.00  0.00    +0.300 C 
BRANCH  29  30
ATOM     30  N   UNL     1       5.067  -2.937  -0.161  0.00  0.00    -0.390 N 
ATOM     31  C   UNL     1       4.556  -1.662   0.360  0.00  0.00    +0.300 C 
ATOM     32  H   UNL     1       4.823  -3.681   0.475  0.00  0.00    +0.420 HD
BRANCH  30  33
ATOM     33  C   UNL     1       6.528  -2.862  -0.290  0.00  0.00    +0.270 C 
BRANCH  33  34
ATOM     34  C   UNL     1       7.156  -2.711   1.096  0.00  0.00    +0.040 C 
BRANCH  34  35
ATOM     35  C   UNL     1       8.678  -2.633   0.961  0.00  0.00    +0.110 C 
BRANCH  35  36
ATOM     36  C   UNL     1       9.202  -3.941   0.427  0.00  0.00    -0.090 A 
ATOM     37  C   UNL     1       8.864  -5.128   1.050  0.00  0.00    +0.000 A 
ATOM     38  C   UNL     1       9.345  -6.327   0.560  0.00  0.00    +0.000 A 
ATOM     39  C   UNL     1      10.164  -6.341  -0.554  0.00  0.00    +0.020 A 
ATOM     40  C   UNL     1      10.501  -5.154  -1.178  0.00  0.00    +0.020 A 
ATOM     41  C   UNL     1      10.017  -3.955  -0.690  0.00  0.00    +0.010 A 
ENDBRANCH  35  36
BRANCH  35  42
ATOM     42  C   UNL     1       9.290  -2.361   2.312  0.00  0.00    -0.080 A 
ATOM     43  C   UNL     1      10.155  -1.296   2.477  0.00  0.00    +0.020 A 
ATOM     44  C   UNL     1      10.716  -1.047   3.715  0.00  0.00    +0.020 A 
ATOM     45  C   UNL     1      10.410  -1.862   4.789  0.00  0.00    +0.010 A 
ATOM     46  C   UNL     1       9.544  -2.927   4.624  0.00  0.00    +0.000 A 
ATOM     47  C   UNL     1       8.980  -3.174   3.386  0.00  0.00    +0.000 A 
ENDBRANCH  35  42
ENDBRANCH  34  35
ENDBRANCH  33  34
ENDBRANCH  30  33
ENDBRANCH  29  30
ENDBRANCH  26  29
ENDBRANCH  25  26
ENDBRANCH   1  25
TORSDOF 14
