MODEL 1
REMARK VINA RESULT:      -7.4      0.000      0.000
REMARK  Name = ZINC000019685788
REMARK  20 active torsions:
REMARK  status: ('A' for Active; 'I' for Inactive)
REMARK    1  A    between atoms: C1_1  and  O2_2
REMARK    2  A    between atoms: O2_2  and  C3_3
REMARK    3  A    between atoms: C3_3  and  C5_5
REMARK    4  A    between atoms: C6_6  and  C7_7
REMARK    5  A    between atoms: C9_9  and  C10_10
REMARK    6  A    between atoms: C11_11  and  C12_12
REMARK    7  A    between atoms: C12_12  and  O14_14
REMARK    8  A    between atoms: O14_14  and  C15_15
REMARK    9  A    between atoms: C15_15  and  C16_16
REMARK   10  A    between atoms: C15_15  and  C17_17
REMARK   11  A    between atoms: C15_15  and  C18_18
REMARK   12  A    between atoms: C18_18  and  N19_19
REMARK   13  A    between atoms: N19_19  and  C21_21
REMARK   14  A    between atoms: N19_19  and  C22_22
REMARK   15  A    between atoms: C22_22  and  C23_23
REMARK   16  A    between atoms: C23_23  and  C24_24
REMARK   17  A    between atoms: C24_24  and  C25_25
REMARK   18  A    between atoms: C24_24  and  C31_31
REMARK   19  A    between atoms: C37_37  and  C39_39
REMARK   20  A    between atoms: C43_43  and  N44_44
REMARK                            x       y       z     vdW  Elec       q    Type
REMARK                         _______ _______ _______ _____ _____    ______ ____
ROOT
ATOM      1  C   UNL     1      -6.228  16.833 -28.685  0.00  0.00    +0.530 C 
ATOM      2  O   UNL     1      -5.931  15.673 -28.900  0.00  0.00    -0.500 OA
ENDROOT
BRANCH   1   8
ATOM      3  C   UNL     1      -5.210  19.126 -25.863  0.00  0.00    -0.230 C 
ATOM      4  C   UNL     1      -6.053  18.652 -24.930  0.00  0.00    +0.200 C 
ATOM      5  N   UNL     1      -6.739  17.486 -25.134  0.00  0.00    -0.620 N 
ATOM      6  H   UNL     1      -7.135  17.020 -24.381  0.00  0.00    +0.430 HD
ATOM      7  C   UNL     1      -6.869  16.973 -26.397  0.00  0.00    +0.270 C 
ATOM      8  C   UNL     1      -6.060  17.378 -27.390  0.00  0.00    -0.290 C 
ATOM      9  C   UNL     1      -7.933  15.943 -26.676  0.00  0.00    +0.160 C 
ATOM     10  C   UNL     1      -6.244  19.412 -23.644  0.00  0.00    +0.140 C 
ATOM     11  C   UNL     1      -4.986  18.400 -27.159  0.00  0.00    +0.190 C 
BRANCH  11  12
ATOM     12  C   UNL     1      -3.648  17.709 -27.103  0.00  0.00    -0.070 A 
ATOM     13  C   UNL     1      -2.623  18.120 -27.933  0.00  0.00    +0.100 A 
ATOM     14  C   UNL     1      -1.395  17.485 -27.882  0.00  0.00    +0.040 A 
ATOM     15  C   UNL     1      -1.193  16.442 -26.998  0.00  0.00    +0.110 A 
ATOM     16  C   UNL     1      -2.218  16.031 -26.168  0.00  0.00    -0.060 A 
ATOM     17  C   UNL     1      -3.445  16.668 -26.216  0.00  0.00    +0.080 A 
BRANCH  16  18
ATOM     18  N   UNL     1      -2.003  14.913 -25.222  0.00  0.00    +0.020 N 
ATOM     19  O   UNL     1      -1.069  14.148 -25.385  0.00  0.00    -0.170 OA
ATOM     20  O   UNL     1      -2.760  14.758 -24.280  0.00  0.00    -0.140 OA
ENDBRANCH  16  18
ENDBRANCH  11  12
BRANCH   3  21
ATOM     21  C   UNL     1      -4.524  20.340 -25.622  0.00  0.00    +0.530 C 
ATOM     22  O   UNL     1      -5.061  21.403 -25.872  0.00  0.00    -0.490 OA
BRANCH  21  24
ATOM     23  C   UNL     1      -3.052  21.034 -23.899  0.00  0.00    +0.270 C 
ATOM     24  O   UNL     1      -3.272  20.318 -25.117  0.00  0.00    -0.350 OA
ENDBRANCH  21  24
ENDBRANCH   3  21
ENDBRANCH   1   8
BRANCH   1  25
ATOM     25  O   UNL     1      -6.719  17.600 -29.682  0.00  0.00    -0.350 OA
BRANCH  25  26
ATOM     26  C   UNL     1      -5.804  17.996 -30.705  0.00  0.00    +0.110 C 
ATOM     27  C   UNL     1      -5.319  19.421 -30.430  0.00  0.00    +0.070 C 
ATOM     28  C   UNL     1      -6.506  17.951 -32.063  0.00  0.00    +0.050 C 
BRANCH  26  29
ATOM     29  C   UNL     1      -4.608  17.043 -30.716  0.00  0.00    +0.300 C 
BRANCH  29  30
ATOM     30  N   UNL     1      -4.092  16.921 -32.086  0.00  0.00    -0.390 N 
ATOM     31  C   UNL     1      -4.135  15.513 -32.501  0.00  0.00    +0.300 C 
ATOM     32  H   UNL     1      -4.661  17.472 -32.711  0.00  0.00    +0.420 HD
BRANCH  30  33
ATOM     33  C   UNL     1      -2.706  17.403 -32.134  0.00  0.00    +0.270 C 
BRANCH  33  34
ATOM     34  C   UNL     1      -1.801  16.432 -31.373  0.00  0.00    +0.040 C 
BRANCH  34  35
ATOM     35  C   UNL     1      -0.443  16.346 -32.071  0.00  0.00    +0.110 C 
BRANCH  35  36
ATOM     36  C   UNL     1       0.027  14.914 -32.079  0.00  0.00    -0.090 A 
ATOM     37  C   UNL     1       1.191  14.571 -32.742  0.00  0.00    +0.000 A 
ATOM     38  C   UNL     1       1.621  13.258 -32.749  0.00  0.00    +0.000 A 
ATOM     39  C   UNL     1       0.888  12.286 -32.093  0.00  0.00    +0.020 A 
ATOM     40  C   UNL     1      -0.275  12.629 -31.429  0.00  0.00    +0.020 A 
ATOM     41  C   UNL     1      -0.704  13.943 -31.419  0.00  0.00    +0.010 A 
ENDBRANCH  35  36
BRANCH  35  42
ATOM     42  C   UNL     1       0.558  17.199 -31.333  0.00  0.00    -0.080 A 
ATOM     43  C   UNL     1       1.185  16.707 -30.204  0.00  0.00    +0.020 A 
ATOM     44  C   UNL     1       2.102  17.489 -29.528  0.00  0.00    +0.020 A 
ATOM     45  C   UNL     1       2.394  18.761 -29.982  0.00  0.00    +0.010 A 
ATOM     46  C   UNL     1       1.767  19.253 -31.112  0.00  0.00    +0.000 A 
ATOM     47  C   UNL     1       0.852  18.469 -31.791  0.00  0.00    +0.000 A 
ENDBRANCH  35  42
ENDBRANCH  34  35
ENDBRANCH  33  34
ENDBRANCH  30  33
ENDBRANCH  29  30
ENDBRANCH  26  29
ENDBRANCH  25  26
ENDBRANCH   1  25
TORSDOF 14
ENDMDL
MODEL 2
REMARK VINA RESULT:      -7.2      0.533      2.693
REMARK  Name = ZINC000019685788
REMARK  20 active torsions:
REMARK  status: ('A' for Active; 'I' for Inactive)
REMARK    1  A    between atoms: C1_1  and  O2_2
REMARK    2  A    between atoms: O2_2  and  C3_3
REMARK    3  A    between atoms: C3_3  and  C5_5
REMARK    4  A    between atoms: C6_6  and  C7_7
REMARK    5  A    between atoms: C9_9  and  C10_10
REMARK    6  A    between atoms: C11_11  and  C12_12
REMARK    7  A    between atoms: C12_12  and  O14_14
REMARK    8  A    between atoms: O14_14  and  C15_15
REMARK    9  A    between atoms: C15_15  and  C16_16
REMARK   10  A    between atoms: C15_15  and  C17_17
REMARK   11  A    between atoms: C15_15  and  C18_18
REMARK   12  A    between atoms: C18_18  and  N19_19
REMARK   13  A    between atoms: N19_19  and  C21_21
REMARK   14  A    between atoms: N19_19  and  C22_22
REMARK   15  A    between atoms: C22_22  and  C23_23
REMARK   16  A    between atoms: C23_23  and  C24_24
REMARK   17  A    between atoms: C24_24  and  C25_25
REMARK   18  A    between atoms: C24_24  and  C31_31
REMARK   19  A    between atoms: C37_37  and  C39_39
REMARK   20  A    between atoms: C43_43  and  N44_44
REMARK                            x       y       z     vdW  Elec       q    Type
REMARK                         _______ _______ _______ _____ _____    ______ ____
ROOT
ATOM      1  C   UNL     1      -6.292  16.743 -28.633  0.00  0.00    +0.530 C 
ATOM      2  O   UNL     1      -5.956  15.587 -28.816  0.00  0.00    -0.500 OA
ENDROOT
BRANCH   1   8
ATOM      3  C   UNL     1      -5.304  19.147 -25.894  0.00  0.00    -0.230 C 
ATOM      4  C   UNL     1      -6.136  18.690 -24.943  0.00  0.00    +0.200 C 
ATOM      5  N   UNL     1      -6.803  17.507 -25.105  0.00  0.00    -0.620 N 
ATOM      6  H   UNL     1      -7.189  17.060 -24.335  0.00  0.00    +0.430 HD
ATOM      7  C   UNL     1      -6.929  16.950 -26.349  0.00  0.00    +0.270 C 
ATOM      8  C   UNL     1      -6.129  17.334 -27.359  0.00  0.00    -0.290 C 
ATOM      9  C   UNL     1      -7.976  15.893 -26.589  0.00  0.00    +0.160 C 
ATOM     10  C   UNL     1      -6.336  19.490 -23.682  0.00  0.00    +0.140 C 
ATOM     11  C   UNL     1      -5.072  18.381 -27.166  0.00  0.00    +0.190 C 
BRANCH  11  12
ATOM     12  C   UNL     1      -3.722  17.715 -27.091  0.00  0.00    -0.070 A 
ATOM     13  C   UNL     1      -2.687  18.158 -27.891  0.00  0.00    +0.100 A 
ATOM     14  C   UNL     1      -1.449  17.547 -27.823  0.00  0.00    +0.040 A 
ATOM     15  C   UNL     1      -1.246  16.492 -26.953  0.00  0.00    +0.110 A 
ATOM     16  C   UNL     1      -2.282  16.048 -26.152  0.00  0.00    -0.060 A 
ATOM     17  C   UNL     1      -3.519  16.662 -26.217  0.00  0.00    +0.080 A 
BRANCH  16  18
ATOM     18  N   UNL     1      -2.065  14.918 -25.221  0.00  0.00    +0.020 N 
ATOM     19  O   UNL     1      -1.105  14.183 -25.366  0.00  0.00    -0.170 OA
ATOM     20  O   UNL     1      -2.848  14.724 -24.307  0.00  0.00    -0.140 OA
ENDBRANCH  16  18
ENDBRANCH  11  12
BRANCH   3  21
ATOM     21  C   UNL     1      -4.638  20.379 -25.697  0.00  0.00    +0.530 C 
ATOM     22  O   UNL     1      -5.072  21.395 -26.207  0.00  0.00    -0.490 OA
BRANCH  21  24
ATOM     23  C   UNL     1      -2.373  21.054 -25.523  0.00  0.00    +0.270 C 
ATOM     24  O   UNL     1      -3.518  20.427 -24.943  0.00  0.00    -0.350 OA
ENDBRANCH  21  24
ENDBRANCH   3  21
ENDBRANCH   1   8
BRANCH   1  25
ATOM     25  O   UNL     1      -6.822  17.459 -29.647  0.00  0.00    -0.350 OA
BRANCH  25  26
ATOM     26  C   UNL     1      -6.091  17.484 -30.875  0.00  0.00    +0.110 C 
ATOM     27  C   UNL     1      -5.883  18.936 -31.314  0.00  0.00    +0.070 C 
ATOM     28  C   UNL     1      -6.876  16.734 -31.952  0.00  0.00    +0.050 C 
BRANCH  26  29
ATOM     29  C   UNL     1      -4.732  16.812 -30.672  0.00  0.00    +0.300 C 
BRANCH  29  30
ATOM     30  N   UNL     1      -3.884  17.061 -31.845  0.00  0.00    -0.390 N 
ATOM     31  C   UNL     1      -3.724  15.815 -32.607  0.00  0.00    +0.300 C 
ATOM     32  H   UNL     1      -4.316  17.759 -32.431  0.00  0.00    +0.420 HD
BRANCH  30  33
ATOM     33  C   UNL     1      -2.566  17.537 -31.406  0.00  0.00    +0.270 C 
BRANCH  33  34
ATOM     34  C   UNL     1      -1.472  16.742 -32.119  0.00  0.00    +0.040 C 
BRANCH  34  35
ATOM     35  C   UNL     1      -0.545  16.105 -31.082  0.00  0.00    +0.110 C 
BRANCH  35  36
ATOM     36  C   UNL     1       0.582  17.054 -30.766  0.00  0.00    -0.090 A 
ATOM     37  C   UNL     1       1.452  16.775 -29.728  0.00  0.00    +0.000 A 
ATOM     38  C   UNL     1       2.485  17.646 -29.439  0.00  0.00    +0.000 A 
ATOM     39  C   UNL     1       2.650  18.797 -30.187  0.00  0.00    +0.020 A 
ATOM     40  C   UNL     1       1.782  19.075 -31.226  0.00  0.00    +0.020 A 
ATOM     41  C   UNL     1       0.750  18.203 -31.518  0.00  0.00    +0.010 A 
ENDBRANCH  35  36
BRANCH  35  42
ATOM     42  C   UNL     1       0.020  14.820 -31.633  0.00  0.00    -0.080 A 
ATOM     43  C   UNL     1      -0.303  13.614 -31.042  0.00  0.00    +0.020 A 
ATOM     44  C   UNL     1       0.215  12.437 -31.547  0.00  0.00    +0.020 A 
ATOM     45  C   UNL     1       1.055  12.466 -32.645  0.00  0.00    +0.010 A 
ATOM     46  C   UNL     1       1.378  13.673 -33.236  0.00  0.00    +0.000 A 
ATOM     47  C   UNL     1       0.857  14.851 -32.733  0.00  0.00    +0.000 A 
ENDBRANCH  35  42
ENDBRANCH  34  35
ENDBRANCH  33  34
ENDBRANCH  30  33
ENDBRANCH  29  30
ENDBRANCH  26  29
ENDBRANCH  25  26
ENDBRANCH   1  25
TORSDOF 14
ENDMDL
MODEL 3
REMARK VINA RESULT:      -7.1      4.632      9.161
REMARK  Name = ZINC000019685788
REMARK  20 active torsions:
REMARK  status: ('A' for Active; 'I' for Inactive)
REMARK    1  A    between atoms: C1_1  and  O2_2
REMARK    2  A    between atoms: O2_2  and  C3_3
REMARK    3  A    between atoms: C3_3  and  C5_5
REMARK    4  A    between atoms: C6_6  and  C7_7
REMARK    5  A    between atoms: C9_9  and  C10_10
REMARK    6  A    between atoms: C11_11  and  C12_12
REMARK    7  A    between atoms: C12_12  and  O14_14
REMARK    8  A    between atoms: O14_14  and  C15_15
REMARK    9  A    between atoms: C15_15  and  C16_16
REMARK   10  A    between atoms: C15_15  and  C17_17
REMARK   11  A    between atoms: C15_15  and  C18_18
REMARK   12  A    between atoms: C18_18  and  N19_19
REMARK   13  A    between atoms: N19_19  and  C21_21
REMARK   14  A    between atoms: N19_19  and  C22_22
REMARK   15  A    between atoms: C22_22  and  C23_23
REMARK   16  A    between atoms: C23_23  and  C24_24
REMARK   17  A    between atoms: C24_24  and  C25_25
REMARK   18  A    between atoms: C24_24  and  C31_31
REMARK   19  A    between atoms: C37_37  and  C39_39
REMARK   20  A    between atoms: C43_43  and  N44_44
REMARK                            x       y       z     vdW  Elec       q    Type
REMARK                         _______ _______ _______ _____ _____    ______ ____
ROOT
ATOM      1  C   UNL     1       1.350  13.964 -32.917  0.00  0.00    +0.530 C 
ATOM      2  O   UNL     1       2.270  13.223 -32.623  0.00  0.00    -0.500 OA
ENDROOT
BRANCH   1   8
ATOM      3  C   UNL     1      -0.608  14.068 -36.143  0.00  0.00    -0.230 C 
ATOM      4  C   UNL     1      -0.953  12.770 -36.188  0.00  0.00    +0.200 C 
ATOM      5  N   UNL     1      -0.769  11.958 -35.102  0.00  0.00    -0.620 N 
ATOM      6  H   UNL     1      -1.242  11.113 -35.045  0.00  0.00    +0.430 HD
ATOM      7  C   UNL     1       0.079  12.333 -34.096  0.00  0.00    +0.270 C 
ATOM      8  C   UNL     1       0.466  13.614 -33.964  0.00  0.00    -0.290 C 
ATOM      9  C   UNL     1       0.585  11.298 -33.124  0.00  0.00    +0.160 C 
ATOM     10  C   UNL     1      -1.550  12.201 -37.449  0.00  0.00    +0.140 C 
ATOM     11  C   UNL     1      -0.013  14.678 -34.907  0.00  0.00    +0.190 C 
BRANCH  11  12
ATOM     12  C   UNL     1      -1.066  15.510 -34.221  0.00  0.00    -0.070 A 
ATOM     13  C   UNL     1      -2.177  14.901 -33.671  0.00  0.00    +0.100 A 
ATOM     14  C   UNL     1      -3.144  15.664 -33.042  0.00  0.00    +0.040 A 
ATOM     15  C   UNL     1      -2.998  17.036 -32.964  0.00  0.00    +0.110 A 
ATOM     16  C   UNL     1      -1.886  17.645 -33.514  0.00  0.00    -0.060 A 
ATOM     17  C   UNL     1      -0.918  16.882 -34.139  0.00  0.00    +0.080 A 
BRANCH  16  18
ATOM     18  N   UNL     1      -1.730  19.115 -33.431  0.00  0.00    +0.020 N 
ATOM     19  O   UNL     1      -1.184  19.617 -32.464  0.00  0.00    -0.170 OA
ATOM     20  O   UNL     1      -2.147  19.823 -34.331  0.00  0.00    -0.140 OA
ENDBRANCH  16  18
ENDBRANCH  11  12
BRANCH   3  21
ATOM     21  C   UNL     1      -0.804  14.875 -37.288  0.00  0.00    +0.530 C 
ATOM     22  O   UNL     1       0.099  15.025 -38.090  0.00  0.00    -0.490 OA
BRANCH  21  24
ATOM     23  C   UNL     1      -1.967  16.881 -37.778  0.00  0.00    +0.270 C 
ATOM     24  O   UNL     1      -1.994  15.482 -37.490  0.00  0.00    -0.350 OA
ENDBRANCH  21  24
ENDBRANCH   3  21
ENDBRANCH   1   8
BRANCH   1  25
ATOM     25  O   UNL     1       1.174  15.121 -32.243  0.00  0.00    -0.350 OA
BRANCH  25  26
ATOM     26  C   UNL     1       0.703  15.023 -30.898  0.00  0.00    +0.110 C 
ATOM     27  C   UNL     1       1.896  14.864 -29.952  0.00  0.00    +0.070 C 
ATOM     28  C   UNL     1      -0.217  13.808 -30.766  0.00  0.00    +0.050 C 
BRANCH  26  29
ATOM     29  C   UNL     1      -0.070  16.292 -30.534  0.00  0.00    +0.300 C 
BRANCH  29  30
ATOM     30  N   UNL     1       0.394  16.792 -29.233  0.00  0.00    -0.390 N 
ATOM     31  C   UNL     1      -0.684  16.657 -28.244  0.00  0.00    +0.300 C 
ATOM     32  H   UNL     1       1.194  16.256 -28.933  0.00  0.00    +0.420 HD
BRANCH  30  33
ATOM     33  C   UNL     1       0.771  18.206 -29.357  0.00  0.00    +0.270 C 
BRANCH  33  34
ATOM     34  C   UNL     1       2.152  18.312 -30.004  0.00  0.00    +0.040 C 
BRANCH  34  35
ATOM     35  C   UNL     1       2.855  19.575 -29.501  0.00  0.00    +0.110 C 
BRANCH  35  36
ATOM     36  C   UNL     1       3.520  20.273 -30.659  0.00  0.00    -0.090 A 
ATOM     37  C   UNL     1       2.770  20.677 -31.748  0.00  0.00    +0.000 A 
ATOM     38  C   UNL     1       3.381  21.317 -32.809  0.00  0.00    +0.000 A 
ATOM     39  C   UNL     1       4.742  21.555 -32.783  0.00  0.00    +0.020 A 
ATOM     40  C   UNL     1       5.493  21.153 -31.694  0.00  0.00    +0.020 A 
ATOM     41  C   UNL     1       4.881  20.516 -30.630  0.00  0.00    +0.010 A 
ENDBRANCH  35  36
BRANCH  35  42
ATOM     42  C   UNL     1       3.896  19.197 -28.478  0.00  0.00    -0.080 A 
ATOM     43  C   UNL     1       4.019  19.933 -27.314  0.00  0.00    +0.020 A 
ATOM     44  C   UNL     1       4.973  19.587 -26.376  0.00  0.00    +0.020 A 
ATOM     45  C   UNL     1       5.802  18.504 -26.601  0.00  0.00    +0.010 A 
ATOM     46  C   UNL     1       5.678  17.768 -27.764  0.00  0.00    +0.000 A 
ATOM     47  C   UNL     1       4.722  18.112 -28.701  0.00  0.00    +0.000 A 
ENDBRANCH  35  42
ENDBRANCH  34  35
ENDBRANCH  33  34
ENDBRANCH  30  33
ENDBRANCH  29  30
ENDBRANCH  26  29
ENDBRANCH  25  26
ENDBRANCH   1  25
TORSDOF 14
ENDMDL
MODEL 4
REMARK VINA RESULT:      -6.8      4.113      8.257
REMARK  Name = ZINC000019685788
REMARK  20 active torsions:
REMARK  status: ('A' for Active; 'I' for Inactive)
REMARK    1  A    between atoms: C1_1  and  O2_2
REMARK    2  A    between atoms: O2_2  and  C3_3
REMARK    3  A    between atoms: C3_3  and  C5_5
REMARK    4  A    between atoms: C6_6  and  C7_7
REMARK    5  A    between atoms: C9_9  and  C10_10
REMARK    6  A    between atoms: C11_11  and  C12_12
REMARK    7  A    between atoms: C12_12  and  O14_14
REMARK    8  A    between atoms: O14_14  and  C15_15
REMARK    9  A    between atoms: C15_15  and  C16_16
REMARK   10  A    between atoms: C15_15  and  C17_17
REMARK   11  A    between atoms: C15_15  and  C18_18
REMARK   12  A    between atoms: C18_18  and  N19_19
REMARK   13  A    between atoms: N19_19  and  C21_21
REMARK   14  A    between atoms: N19_19  and  C22_22
REMARK   15  A    between atoms: C22_22  and  C23_23
REMARK   16  A    between atoms: C23_23  and  C24_24
REMARK   17  A    between atoms: C24_24  and  C25_25
REMARK   18  A    between atoms: C24_24  and  C31_31
REMARK   19  A    between atoms: C37_37  and  C39_39
REMARK   20  A    between atoms: C43_43  and  N44_44
REMARK                            x       y       z     vdW  Elec       q    Type
REMARK                         _______ _______ _______ _____ _____    ______ ____
ROOT
ATOM      1  C   UNL     1       0.358  16.976 -31.390  0.00  0.00    +0.530 C 
ATOM      2  O   UNL     1       1.508  17.367 -31.467  0.00  0.00    -0.500 OA
ENDROOT
BRANCH   1   8
ATOM      3  C   UNL     1      -0.474  14.300 -33.920  0.00  0.00    -0.230 C 
ATOM      4  C   UNL     1      -0.342  13.236 -33.110  0.00  0.00    +0.200 C 
ATOM      5  N   UNL     1      -0.231  13.397 -31.756  0.00  0.00    -0.620 N 
ATOM      6  H   UNL     1      -0.392  12.644 -31.165  0.00  0.00    +0.430 HD
ATOM      7  C   UNL     1       0.107  14.615 -31.230  0.00  0.00    +0.270 C 
ATOM      8  C   UNL     1      -0.008  15.736 -31.963  0.00  0.00    -0.290 C 
ATOM      9  C   UNL     1       0.614  14.700 -29.813  0.00  0.00    +0.160 C 
ATOM     10  C   UNL     1      -0.314  11.850 -33.699  0.00  0.00    +0.140 C 
ATOM     11  C   UNL     1      -0.509  15.700 -33.376  0.00  0.00    +0.190 C 
BRANCH  11  12
ATOM     12  C   UNL     1      -1.931  16.198 -33.411  0.00  0.00    -0.070 A 
ATOM     13  C   UNL     1      -2.319  17.112 -34.372  0.00  0.00    +0.100 A 
ATOM     14  C   UNL     1      -3.624  17.569 -34.404  0.00  0.00    +0.040 A 
ATOM     15  C   UNL     1      -4.539  17.112 -33.475  0.00  0.00    +0.110 A 
ATOM     16  C   UNL     1      -4.151  16.198 -32.514  0.00  0.00    -0.060 A 
ATOM     17  C   UNL     1      -2.847  15.737 -32.484  0.00  0.00    +0.080 A 
BRANCH  16  18
ATOM     18  N   UNL     1      -5.131  15.709 -31.518  0.00  0.00    +0.020 N 
ATOM     19  O   UNL     1      -5.457  16.419 -30.583  0.00  0.00    -0.170 OA
ATOM     20  O   UNL     1      -5.612  14.595 -31.634  0.00  0.00    -0.140 OA
ENDBRANCH  16  18
ENDBRANCH  11  12
BRANCH   3  21
ATOM     21  C   UNL     1      -0.577  14.097 -35.316  0.00  0.00    +0.530 C 
ATOM     22  O   UNL     1       0.384  14.303 -36.034  0.00  0.00    -0.490 OA
BRANCH  21  24
ATOM     23  C   UNL     1      -1.665  12.942 -37.076  0.00  0.00    +0.270 C 
ATOM     24  O   UNL     1      -1.742  13.676 -35.853  0.00  0.00    -0.350 OA
ENDBRANCH  21  24
ENDBRANCH   3  21
ENDBRANCH   1   8
BRANCH   1  25
ATOM     25  O   UNL     1      -0.569  17.728 -30.759  0.00  0.00    -0.350 OA
BRANCH  25  26
ATOM     26  C   UNL     1      -0.739  19.070 -31.218  0.00  0.00    +0.110 C 
ATOM     27  C   UNL     1      -2.232  19.370 -31.373  0.00  0.00    +0.070 C 
ATOM     28  C   UNL     1      -0.042  19.239 -32.569  0.00  0.00    +0.050 C 
BRANCH  26  29
ATOM     29  C   UNL     1      -0.127  20.037 -30.203  0.00  0.00    +0.300 C 
BRANCH  29  30
ATOM     30  N   UNL     1      -0.117  19.411 -28.875  0.00  0.00    -0.390 N 
ATOM     31  C   UNL     1      -0.771  20.303 -27.908  0.00  0.00    +0.300 C 
ATOM     32  H   UNL     1      -0.615  18.535 -28.912  0.00  0.00    +0.420 HD
BRANCH  30  33
ATOM     33  C   UNL     1       1.270  19.170 -28.457  0.00  0.00    +0.270 C 
BRANCH  33  34
ATOM     34  C   UNL     1       2.192  20.183 -29.137  0.00  0.00    +0.040 C 
BRANCH  34  35
ATOM     35  C   UNL     1       3.460  19.475 -29.620  0.00  0.00    +0.110 C 
BRANCH  35  36
ATOM     36  C   UNL     1       4.432  19.351 -28.475  0.00  0.00    -0.090 A 
ATOM     37  C   UNL     1       4.702  20.445 -27.675  0.00  0.00    +0.000 A 
ATOM     38  C   UNL     1       5.594  20.330 -26.626  0.00  0.00    +0.000 A 
ATOM     39  C   UNL     1       6.217  19.121 -26.375  0.00  0.00    +0.020 A 
ATOM     40  C   UNL     1       5.945  18.027 -27.175  0.00  0.00    +0.020 A 
ATOM     41  C   UNL     1       5.051  18.140 -28.222  0.00  0.00    +0.010 A 
ENDBRANCH  35  36
BRANCH  35  42
ATOM     42  C   UNL     1       4.091  20.276 -30.730  0.00  0.00    -0.080 A 
ATOM     43  C   UNL     1       5.441  20.568 -30.690  0.00  0.00    +0.020 A 
ATOM     44  C   UNL     1       6.020  21.303 -31.708  0.00  0.00    +0.020 A 
ATOM     45  C   UNL     1       5.248  21.743 -32.767  0.00  0.00    +0.010 A 
ATOM     46  C   UNL     1       3.897  21.451 -32.807  0.00  0.00    +0.000 A 
ATOM     47  C   UNL     1       3.319  20.713 -31.791  0.00  0.00    +0.000 A 
ENDBRANCH  35  42
ENDBRANCH  34  35
ENDBRANCH  33  34
ENDBRANCH  30  33
ENDBRANCH  29  30
ENDBRANCH  26  29
ENDBRANCH  25  26
ENDBRANCH   1  25
TORSDOF 14
ENDMDL
MODEL 5
REMARK VINA RESULT:      -6.8      2.391      3.913
REMARK  Name = ZINC000019685788
REMARK  20 active torsions:
REMARK  status: ('A' for Active; 'I' for Inactive)
REMARK    1  A    between atoms: C1_1  and  O2_2
REMARK    2  A    between atoms: O2_2  and  C3_3
REMARK    3  A    between atoms: C3_3  and  C5_5
REMARK    4  A    between atoms: C6_6  and  C7_7
REMARK    5  A    between atoms: C9_9  and  C10_10
REMARK    6  A    between atoms: C11_11  and  C12_12
REMARK    7  A    between atoms: C12_12  and  O14_14
REMARK    8  A    between atoms: O14_14  and  C15_15
REMARK    9  A    between atoms: C15_15  and  C16_16
REMARK   10  A    between atoms: C15_15  and  C17_17
REMARK   11  A    between atoms: C15_15  and  C18_18
REMARK   12  A    between atoms: C18_18  and  N19_19
REMARK   13  A    between atoms: N19_19  and  C21_21
REMARK   14  A    between atoms: N19_19  and  C22_22
REMARK   15  A    between atoms: C22_22  and  C23_23
REMARK   16  A    between atoms: C23_23  and  C24_24
REMARK   17  A    between atoms: C24_24  and  C25_25
REMARK   18  A    between atoms: C24_24  and  C31_31
REMARK   19  A    between atoms: C37_37  and  C39_39
REMARK   20  A    between atoms: C43_43  and  N44_44
REMARK                            x       y       z     vdW  Elec       q    Type
REMARK                         _______ _______ _______ _____ _____    ______ ____
ROOT
ATOM      1  C   UNL     1      -3.158  17.907 -30.454  0.00  0.00    +0.530 C 
ATOM      2  O   UNL     1      -3.704  16.838 -30.651  0.00  0.00    -0.500 OA
ENDROOT
BRANCH   1   8
ATOM      3  C   UNL     1      -3.444  20.304 -27.551  0.00  0.00    -0.230 C 
ATOM      4  C   UNL     1      -4.621  20.859 -27.889  0.00  0.00    +0.200 C 
ATOM      5  N   UNL     1      -5.398  20.309 -28.872  0.00  0.00    -0.620 N 
ATOM      6  H   UNL     1      -6.336  20.547 -28.936  0.00  0.00    +0.430 HD
ATOM      7  C   UNL     1      -4.858  19.424 -29.765  0.00  0.00    +0.270 C 
ATOM      8  C   UNL     1      -3.691  18.810 -29.505  0.00  0.00    -0.290 C 
ATOM      9  C   UNL     1      -5.579  19.135 -31.057  0.00  0.00    +0.160 C 
ATOM     10  C   UNL     1      -5.091  22.101 -27.177  0.00  0.00    +0.140 C 
ATOM     11  C   UNL     1      -2.938  19.065 -28.232  0.00  0.00    +0.190 C 
BRANCH  11  12
ATOM     12  C   UNL     1      -3.123  17.892 -27.304  0.00  0.00    -0.070 A 
ATOM     13  C   UNL     1      -2.040  17.379 -26.615  0.00  0.00    +0.100 A 
ATOM     14  C   UNL     1      -2.209  16.303 -25.764  0.00  0.00    +0.040 A 
ATOM     15  C   UNL     1      -3.461  15.741 -25.600  0.00  0.00    +0.110 A 
ATOM     16  C   UNL     1      -4.544  16.254 -26.288  0.00  0.00    -0.060 A 
ATOM     17  C   UNL     1      -4.376  17.333 -27.137  0.00  0.00    +0.080 A 
BRANCH  16  18
ATOM     18  N   UNL     1      -5.885  15.652 -26.114  0.00  0.00    +0.020 N 
ATOM     19  O   UNL     1      -6.599  16.009 -25.194  0.00  0.00    -0.170 OA
ATOM     20  O   UNL     1      -6.276  14.800 -26.893  0.00  0.00    -0.140 OA
ENDBRANCH  16  18
ENDBRANCH  11  12
BRANCH   3  21
ATOM     21  C   UNL     1      -2.663  20.905 -26.537  0.00  0.00    +0.530 C 
ATOM     22  O   UNL     1      -2.835  20.595 -25.372  0.00  0.00    -0.490 OA
BRANCH  21  24
ATOM     23  C   UNL     1      -0.398  21.348 -27.074  0.00  0.00    +0.270 C 
ATOM     24  O   UNL     1      -1.729  21.824 -26.860  0.00  0.00    -0.350 OA
ENDBRANCH  21  24
ENDBRANCH   3  21
ENDBRANCH   1   8
BRANCH   1  25
ATOM     25  O   UNL     1      -2.042  18.232 -31.142  0.00  0.00    -0.350 OA
BRANCH  25  26
ATOM     26  C   UNL     1      -1.870  17.622 -32.423  0.00  0.00    +0.110 C 
ATOM     27  C   UNL     1      -3.144  17.805 -33.250  0.00  0.00    +0.070 C 
ATOM     28  C   UNL     1      -1.589  16.129 -32.244  0.00  0.00    +0.050 C 
BRANCH  26  29
ATOM     29  C   UNL     1      -0.693  18.280 -33.146  0.00  0.00    +0.300 C 
BRANCH  29  30
ATOM     30  N   UNL     1      -0.340  19.533 -32.466  0.00  0.00    -0.390 N 
ATOM     31  C   UNL     1      -0.608  20.668 -33.360  0.00  0.00    +0.300 C 
ATOM     32  H   UNL     1      -0.893  19.629 -31.628  0.00  0.00    +0.420 HD
BRANCH  30  33
ATOM     33  C   UNL     1       1.086  19.515 -32.114  0.00  0.00    +0.270 C 
BRANCH  33  34
ATOM     34  C   UNL     1       1.236  19.350 -30.601  0.00  0.00    +0.040 C 
BRANCH  34  35
ATOM     35  C   UNL     1       2.277  18.269 -30.306  0.00  0.00    +0.110 C 
BRANCH  35  36
ATOM     36  C   UNL     1       1.579  16.971 -29.994  0.00  0.00    -0.090 A 
ATOM     37  C   UNL     1       2.039  15.789 -30.544  0.00  0.00    +0.000 A 
ATOM     38  C   UNL     1       1.397  14.599 -30.258  0.00  0.00    +0.000 A 
ATOM     39  C   UNL     1       0.296  14.589 -29.422  0.00  0.00    +0.020 A 
ATOM     40  C   UNL     1      -0.163  15.771 -28.871  0.00  0.00    +0.020 A 
ATOM     41  C   UNL     1       0.481  16.961 -29.154  0.00  0.00    +0.010 A 
ENDBRANCH  35  36
BRANCH  35  42
ATOM     42  C   UNL     1       3.114  18.686 -29.122  0.00  0.00    -0.080 A 
ATOM     43  C   UNL     1       2.829  19.861 -28.454  0.00  0.00    +0.020 A 
ATOM     44  C   UNL     1       3.596  20.243 -27.370  0.00  0.00    +0.020 A 
ATOM     45  C   UNL     1       4.647  19.448 -26.952  0.00  0.00    +0.010 A 
ATOM     46  C   UNL     1       4.931  18.272 -27.621  0.00  0.00    +0.000 A 
ATOM     47  C   UNL     1       4.162  17.888 -28.703  0.00  0.00    +0.000 A 
ENDBRANCH  35  42
ENDBRANCH  34  35
ENDBRANCH  33  34
ENDBRANCH  30  33
ENDBRANCH  29  30
ENDBRANCH  26  29
ENDBRANCH  25  26
ENDBRANCH   1  25
TORSDOF 14
ENDMDL
MODEL 6
REMARK VINA RESULT:      -6.8      3.730      8.794
REMARK  Name = ZINC000019685788
REMARK  20 active torsions:
REMARK  status: ('A' for Active; 'I' for Inactive)
REMARK    1  A    between atoms: C1_1  and  O2_2
REMARK    2  A    between atoms: O2_2  and  C3_3
REMARK    3  A    between atoms: C3_3  and  C5_5
REMARK    4  A    between atoms: C6_6  and  C7_7
REMARK    5  A    between atoms: C9_9  and  C10_10
REMARK    6  A    between atoms: C11_11  and  C12_12
REMARK    7  A    between atoms: C12_12  and  O14_14
REMARK    8  A    between atoms: O14_14  and  C15_15
REMARK    9  A    between atoms: C15_15  and  C16_16
REMARK   10  A    between atoms: C15_15  and  C17_17
REMARK   11  A    between atoms: C15_15  and  C18_18
REMARK   12  A    between atoms: C18_18  and  N19_19
REMARK   13  A    between atoms: N19_19  and  C21_21
REMARK   14  A    between atoms: N19_19  and  C22_22
REMARK   15  A    between atoms: C22_22  and  C23_23
REMARK   16  A    between atoms: C23_23  and  C24_24
REMARK   17  A    between atoms: C24_24  and  C25_25
REMARK   18  A    between atoms: C24_24  and  C31_31
REMARK   19  A    between atoms: C37_37  and  C39_39
REMARK   20  A    between atoms: C43_43  and  N44_44
REMARK                            x       y       z     vdW  Elec       q    Type
REMARK                         _______ _______ _______ _____ _____    ______ ____
ROOT
ATOM      1  C   UNL     1       0.970  14.172 -33.719  0.00  0.00    +0.530 C 
ATOM      2  O   UNL     1       2.031  13.660 -34.026  0.00  0.00    -0.500 OA
ENDROOT
BRANCH   1   8
ATOM      3  C   UNL     1      -1.583  15.062 -36.354  0.00  0.00    -0.230 C 
ATOM      4  C   UNL     1      -2.040  13.820 -36.591  0.00  0.00    +0.200 C 
ATOM      5  N   UNL     1      -1.710  12.783 -35.762  0.00  0.00    -0.620 N 
ATOM      6  H   UNL     1      -2.232  11.965 -35.781  0.00  0.00    +0.430 HD
ATOM      7  C   UNL     1      -0.647  12.893 -34.907  0.00  0.00    +0.270 C 
ATOM      8  C   UNL     1      -0.133  14.096 -34.600  0.00  0.00    -0.290 C 
ATOM      9  C   UNL     1      -0.045  11.650 -34.303  0.00  0.00    +0.160 C 
ATOM     10  C   UNL     1      -2.925  13.567 -37.783  0.00  0.00    +0.140 C 
ATOM     11  C   UNL     1      -0.700  15.360 -35.176  0.00  0.00    +0.190 C 
BRANCH  11  12
ATOM     12  C   UNL     1      -1.519  16.062 -34.122  0.00  0.00    -0.070 A 
ATOM     13  C   UNL     1      -1.112  17.289 -33.634  0.00  0.00    +0.100 A 
ATOM     14  C   UNL     1      -1.862  17.932 -32.667  0.00  0.00    +0.040 A 
ATOM     15  C   UNL     1      -3.020  17.348 -32.190  0.00  0.00    +0.110 A 
ATOM     16  C   UNL     1      -3.427  16.121 -32.677  0.00  0.00    -0.060 A 
ATOM     17  C   UNL     1      -2.679  15.479 -33.647  0.00  0.00    +0.080 A 
BRANCH  16  18
ATOM     18  N   UNL     1      -4.667  15.494 -32.165  0.00  0.00    +0.020 N 
ATOM     19  O   UNL     1      -4.771  14.281 -32.138  0.00  0.00    -0.170 OA
ATOM     20  O   UNL     1      -5.583  16.193 -31.770  0.00  0.00    -0.140 OA
ENDBRANCH  16  18
ENDBRANCH  11  12
BRANCH   3  21
ATOM     21  C   UNL     1      -1.937  16.109 -37.237  0.00  0.00    +0.530 C 
ATOM     22  O   UNL     1      -1.176  16.437 -38.128  0.00  0.00    -0.490 OA
BRANCH  21  24
ATOM     23  C   UNL     1      -3.069  18.146 -36.812  0.00  0.00    +0.270 C 
ATOM     24  O   UNL     1      -3.118  16.745 -37.089  0.00  0.00    -0.350 OA
ENDBRANCH  21  24
ENDBRANCH   3  21
ENDBRANCH   1   8
BRANCH   1  25
ATOM     25  O   UNL     1       0.848  14.814 -32.537  0.00  0.00    -0.350 OA
BRANCH  25  26
ATOM     26  C   UNL     1       0.652  14.004 -31.377  0.00  0.00    +0.110 C 
ATOM     27  C   UNL     1       1.541  12.761 -31.467  0.00  0.00    +0.070 C 
ATOM     28  C   UNL     1      -0.815  13.576 -31.294  0.00  0.00    +0.050 C 
BRANCH  26  29
ATOM     29  C   UNL     1       1.021  14.805 -30.127  0.00  0.00    +0.300 C 
BRANCH  29  30
ATOM     30  N   UNL     1       0.197  16.020 -30.063  0.00  0.00    -0.390 N 
ATOM     31  C   UNL     1       1.030  17.193 -30.361  0.00  0.00    +0.300 C 
ATOM     32  H   UNL     1      -0.548  15.957 -30.741  0.00  0.00    +0.420 HD
BRANCH  30  33
ATOM     33  C   UNL     1      -0.375  16.155 -28.717  0.00  0.00    +0.270 C 
BRANCH  33  34
ATOM     34  C   UNL     1      -1.332  17.347 -28.686  0.00  0.00    +0.040 C 
BRANCH  34  35
ATOM     35  C   UNL     1      -1.929  17.485 -27.285  0.00  0.00    +0.110 C 
BRANCH  35  36
ATOM     36  C   UNL     1      -3.386  17.102 -27.320  0.00  0.00    -0.090 A 
ATOM     37  C   UNL     1      -4.207  17.592 -28.319  0.00  0.00    +0.000 A 
ATOM     38  C   UNL     1      -5.542  17.240 -28.351  0.00  0.00    +0.000 A 
ATOM     39  C   UNL     1      -6.059  16.396 -27.385  0.00  0.00    +0.020 A 
ATOM     40  C   UNL     1      -5.238  15.904 -26.387  0.00  0.00    +0.020 A 
ATOM     41  C   UNL     1      -3.902  16.254 -26.357  0.00  0.00    +0.010 A 
ENDBRANCH  35  36
BRANCH  35  42
ATOM     42  C   UNL     1      -1.798  18.914 -26.820  0.00  0.00    -0.080 A 
ATOM     43  C   UNL     1      -1.005  19.800 -27.525  0.00  0.00    +0.020 A 
ATOM     44  C   UNL     1      -0.884  21.108 -27.098  0.00  0.00    +0.020 A 
ATOM     45  C   UNL     1      -1.558  21.532 -25.968  0.00  0.00    +0.010 A 
ATOM     46  C   UNL     1      -2.352  20.646 -25.264  0.00  0.00    +0.000 A 
ATOM     47  C   UNL     1      -2.476  19.338 -25.692  0.00  0.00    +0.000 A 
ENDBRANCH  35  42
ENDBRANCH  34  35
ENDBRANCH  33  34
ENDBRANCH  30  33
ENDBRANCH  29  30
ENDBRANCH  26  29
ENDBRANCH  25  26
ENDBRANCH   1  25
TORSDOF 14
ENDMDL
MODEL 7
REMARK VINA RESULT:      -6.8      3.029      8.782
REMARK  Name = ZINC000019685788
REMARK  20 active torsions:
REMARK  status: ('A' for Active; 'I' for Inactive)
REMARK    1  A    between atoms: C1_1  and  O2_2
REMARK    2  A    between atoms: O2_2  and  C3_3
REMARK    3  A    between atoms: C3_3  and  C5_5
REMARK    4  A    between atoms: C6_6  and  C7_7
REMARK    5  A    between atoms: C9_9  and  C10_10
REMARK    6  A    between atoms: C11_11  and  C12_12
REMARK    7  A    between atoms: C12_12  and  O14_14
REMARK    8  A    between atoms: O14_14  and  C15_15
REMARK    9  A    between atoms: C15_15  and  C16_16
REMARK   10  A    between atoms: C15_15  and  C17_17
REMARK   11  A    between atoms: C15_15  and  C18_18
REMARK   12  A    between atoms: C18_18  and  N19_19
REMARK   13  A    between atoms: N19_19  and  C21_21
REMARK   14  A    between atoms: N19_19  and  C22_22
REMARK   15  A    between atoms: C22_22  and  C23_23
REMARK   16  A    between atoms: C23_23  and  C24_24
REMARK   17  A    between atoms: C24_24  and  C25_25
REMARK   18  A    between atoms: C24_24  and  C31_31
REMARK   19  A    between atoms: C37_37  and  C39_39
REMARK   20  A    between atoms: C43_43  and  N44_44
REMARK                            x       y       z     vdW  Elec       q    Type
REMARK                         _______ _______ _______ _____ _____    ______ ____
ROOT
ATOM      1  C   UNL     1      -2.234  17.996 -29.823  0.00  0.00    +0.530 C 
ATOM      2  O   UNL     1      -3.050  17.427 -29.122  0.00  0.00    -0.500 OA
ENDROOT
BRANCH   1   8
ATOM      3  C   UNL     1      -0.087  15.627 -31.831  0.00  0.00    -0.230 C 
ATOM      4  C   UNL     1      -0.755  15.717 -32.994  0.00  0.00    +0.200 C 
ATOM      5  N   UNL     1      -1.703  16.684 -33.183  0.00  0.00    -0.620 N 
ATOM      6  H   UNL     1      -1.992  16.908 -34.082  0.00  0.00    +0.430 HD
ATOM      7  C   UNL     1      -2.247  17.338 -32.111  0.00  0.00    +0.270 C 
ATOM      8  C   UNL     1      -1.639  17.316 -30.912  0.00  0.00    -0.290 C 
ATOM      9  C   UNL     1      -3.542  18.092 -32.276  0.00  0.00    +0.160 C 
ATOM     10  C   UNL     1      -0.457  14.740 -34.102  0.00  0.00    +0.140 C 
ATOM     11  C   UNL     1      -0.349  16.580 -30.701  0.00  0.00    +0.190 C 
BRANCH  11  12
ATOM     12  C   UNL     1       0.782  17.573 -30.632  0.00  0.00    -0.070 A 
ATOM     13  C   UNL     1       0.871  18.585 -31.569  0.00  0.00    +0.100 A 
ATOM     14  C   UNL     1       1.910  19.496 -31.506  0.00  0.00    +0.040 A 
ATOM     15  C   UNL     1       2.858  19.396 -30.505  0.00  0.00    +0.110 A 
ATOM     16  C   UNL     1       2.769  18.384 -29.568  0.00  0.00    -0.060 A 
ATOM     17  C   UNL     1       1.728  17.475 -29.628  0.00  0.00    +0.080 A 
BRANCH  16  18
ATOM     18  N   UNL     1       3.784  18.275 -28.497  0.00  0.00    +0.020 N 
ATOM     19  O   UNL     1       3.824  19.107 -27.608  0.00  0.00    -0.170 OA
ATOM     20  O   UNL     1       4.580  17.352 -28.504  0.00  0.00    -0.140 OA
ENDBRANCH  16  18
ENDBRANCH  11  12
BRANCH   3  21
ATOM     21  C   UNL     1       0.881  14.608 -31.667  0.00  0.00    +0.530 C 
ATOM     22  O   UNL     1       2.010  14.766 -32.092  0.00  0.00    -0.490 OA
BRANCH  21  24
ATOM     23  C   UNL     1       0.778  12.242 -31.756  0.00  0.00    +0.270 C 
ATOM     24  O   UNL     1       0.550  13.458 -31.041  0.00  0.00    -0.350 OA
ENDBRANCH  21  24
ENDBRANCH   3  21
ENDBRANCH   1   8
BRANCH   1  25
ATOM     25  O   UNL     1      -1.895  19.276 -29.562  0.00  0.00    -0.350 OA
BRANCH  25  26
ATOM     26  C   UNL     1      -1.438  19.569 -28.240  0.00  0.00    +0.110 C 
ATOM     27  C   UNL     1      -0.076  20.263 -28.314  0.00  0.00    +0.070 C 
ATOM     28  C   UNL     1      -1.305  18.269 -27.445  0.00  0.00    +0.050 C 
BRANCH  26  29
ATOM     29  C   UNL     1      -2.442  20.492 -27.546  0.00  0.00    +0.300 C 
BRANCH  29  30
ATOM     30  N   UNL     1      -3.408  20.994 -28.532  0.00  0.00    -0.390 N 
ATOM     31  C   UNL     1      -3.209  22.437 -28.721  0.00  0.00    +0.300 C 
ATOM     32  H   UNL     1      -3.269  20.519 -29.411  0.00  0.00    +0.420 HD
BRANCH  30  33
ATOM     33  C   UNL     1      -4.773  20.747 -28.052  0.00  0.00    +0.270 C 
BRANCH  33  34
ATOM     34  C   UNL     1      -4.746  20.492 -26.545  0.00  0.00    +0.040 C 
BRANCH  34  35
ATOM     35  C   UNL     1      -6.081  19.887 -26.105  0.00  0.00    +0.110 C 
BRANCH  35  36
ATOM     36  C   UNL     1      -6.333  20.224 -24.658  0.00  0.00    -0.090 A 
ATOM     37  C   UNL     1      -5.321  20.768 -23.889  0.00  0.00    +0.000 A 
ATOM     38  C   UNL     1      -5.552  21.077 -22.562  0.00  0.00    +0.000 A 
ATOM     39  C   UNL     1      -6.795  20.842 -22.003  0.00  0.00    +0.020 A 
ATOM     40  C   UNL     1      -7.807  20.299 -22.773  0.00  0.00    +0.020 A 
ATOM     41  C   UNL     1      -7.577  19.994 -24.101  0.00  0.00    +0.010 A 
ENDBRANCH  35  36
BRANCH  35  42
ATOM     42  C   UNL     1      -6.034  18.389 -26.271  0.00  0.00    -0.080 A 
ATOM     43  C   UNL     1      -7.165  17.703 -26.671  0.00  0.00    +0.020 A 
ATOM     44  C   UNL     1      -7.122  16.330 -26.823  0.00  0.00    +0.020 A 
ATOM     45  C   UNL     1      -5.947  15.644 -26.577  0.00  0.00    +0.010 A 
ATOM     46  C   UNL     1      -4.816  16.331 -26.177  0.00  0.00    +0.000 A 
ATOM     47  C   UNL     1      -4.858  17.705 -26.029  0.00  0.00    +0.000 A 
ENDBRANCH  35  42
ENDBRANCH  34  35
ENDBRANCH  33  34
ENDBRANCH  30  33
ENDBRANCH  29  30
ENDBRANCH  26  29
ENDBRANCH  25  26
ENDBRANCH   1  25
TORSDOF 14
ENDMDL
MODEL 8
REMARK VINA RESULT:      -6.7      1.702      2.706
REMARK  Name = ZINC000019685788
REMARK  20 active torsions:
REMARK  status: ('A' for Active; 'I' for Inactive)
REMARK    1  A    between atoms: C1_1  and  O2_2
REMARK    2  A    between atoms: O2_2  and  C3_3
REMARK    3  A    between atoms: C3_3  and  C5_5
REMARK    4  A    between atoms: C6_6  and  C7_7
REMARK    5  A    between atoms: C9_9  and  C10_10
REMARK    6  A    between atoms: C11_11  and  C12_12
REMARK    7  A    between atoms: C12_12  and  O14_14
REMARK    8  A    between atoms: O14_14  and  C15_15
REMARK    9  A    between atoms: C15_15  and  C16_16
REMARK   10  A    between atoms: C15_15  and  C17_17
REMARK   11  A    between atoms: C15_15  and  C18_18
REMARK   12  A    between atoms: C18_18  and  N19_19
REMARK   13  A    between atoms: N19_19  and  C21_21
REMARK   14  A    between atoms: N19_19  and  C22_22
REMARK   15  A    between atoms: C22_22  and  C23_23
REMARK   16  A    between atoms: C23_23  and  C24_24
REMARK   17  A    between atoms: C24_24  and  C25_25
REMARK   18  A    between atoms: C24_24  and  C31_31
REMARK   19  A    between atoms: C37_37  and  C39_39
REMARK   20  A    between atoms: C43_43  and  N44_44
REMARK                            x       y       z     vdW  Elec       q    Type
REMARK                         _______ _______ _______ _____ _____    ______ ____
ROOT
ATOM      1  C   UNL     1      -6.296  16.918 -28.607  0.00  0.00    +0.530 C 
ATOM      2  O   UNL     1      -5.933  15.786 -28.870  0.00  0.00    -0.500 OA
ENDROOT
BRANCH   1   8
ATOM      3  C   UNL     1      -5.226  19.149 -25.756  0.00  0.00    -0.230 C 
ATOM      4  C   UNL     1      -6.062  18.664 -24.822  0.00  0.00    +0.200 C 
ATOM      5  N   UNL     1      -6.761  17.509 -25.040  0.00  0.00    -0.620 N 
ATOM      6  H   UNL     1      -7.153  17.032 -24.291  0.00  0.00    +0.430 HD
ATOM      7  C   UNL     1      -6.910  17.021 -26.310  0.00  0.00    +0.270 C 
ATOM      8  C   UNL     1      -6.108  17.437 -27.305  0.00  0.00    -0.290 C 
ATOM      9  C   UNL     1      -7.987  16.005 -26.596  0.00  0.00    +0.160 C 
ATOM     10  C   UNL     1      -6.232  19.402 -23.519  0.00  0.00    +0.140 C 
ATOM     11  C   UNL     1      -5.023  18.445 -27.067  0.00  0.00    +0.190 C 
BRANCH  11  12
ATOM     12  C   UNL     1      -3.691  17.741 -27.039  0.00  0.00    -0.070 A 
ATOM     13  C   UNL     1      -2.675  18.150 -27.883  0.00  0.00    +0.100 A 
ATOM     14  C   UNL     1      -1.453  17.504 -27.857  0.00  0.00    +0.040 A 
ATOM     15  C   UNL     1      -1.246  16.450 -26.987  0.00  0.00    +0.110 A 
ATOM     16  C   UNL     1      -2.262  16.042 -26.143  0.00  0.00    -0.060 A 
ATOM     17  C   UNL     1      -3.483  16.690 -26.165  0.00  0.00    +0.080 A 
BRANCH  16  18
ATOM     18  N   UNL     1      -2.041  14.912 -25.211  0.00  0.00    +0.020 N 
ATOM     19  O   UNL     1      -1.133  14.125 -25.411  0.00  0.00    -0.170 OA
ATOM     20  O   UNL     1      -2.768  14.772 -24.243  0.00  0.00    -0.140 OA
ENDBRANCH  16  18
ENDBRANCH  11  12
BRANCH   3  21
ATOM     21  C   UNL     1      -4.526  20.351 -25.500  0.00  0.00    +0.530 C 
ATOM     22  O   UNL     1      -3.514  20.335 -24.824  0.00  0.00    -0.490 OA
BRANCH  21  24
ATOM     23  C   UNL     1      -5.200  22.583 -25.076  0.00  0.00    +0.270 C 
ATOM     24  O   UNL     1      -4.982  21.518 -26.003  0.00  0.00    -0.350 OA
ENDBRANCH  21  24
ENDBRANCH   3  21
ENDBRANCH   1   8
BRANCH   1  25
ATOM     25  O   UNL     1      -6.879  17.677 -29.559  0.00  0.00    -0.350 OA
BRANCH  25  26
ATOM     26  C   UNL     1      -6.041  18.148 -30.617  0.00  0.00    +0.110 C 
ATOM     27  C   UNL     1      -5.590  19.578 -30.311  0.00  0.00    +0.070 C 
ATOM     28  C   UNL     1      -6.820  18.130 -31.933  0.00  0.00    +0.050 C 
BRANCH  26  29
ATOM     29  C   UNL     1      -4.815  17.241 -30.737  0.00  0.00    +0.300 C 
BRANCH  29  30
ATOM     30  N   UNL     1      -4.724  16.720 -32.107  0.00  0.00    -0.390 N 
ATOM     31  C   UNL     1      -5.088  15.296 -32.114  0.00  0.00    +0.300 C 
ATOM     32  H   UNL     1      -5.356  17.230 -32.704  0.00  0.00    +0.420 HD
BRANCH  30  33
ATOM     33  C   UNL     1      -3.350  16.875 -32.601  0.00  0.00    +0.270 C 
BRANCH  33  34
ATOM     34  C   UNL     1      -2.714  15.497 -32.785  0.00  0.00    +0.040 C 
BRANCH  34  35
ATOM     35  C   UNL     1      -1.307  15.657 -33.365  0.00  0.00    +0.110 C 
BRANCH  35  36
ATOM     36  C   UNL     1      -1.357  15.474 -34.860  0.00  0.00    -0.090 A 
ATOM     37  C   UNL     1      -0.484  16.175 -35.672  0.00  0.00    +0.000 A 
ATOM     38  C   UNL     1      -0.531  16.007 -37.043  0.00  0.00    +0.000 A 
ATOM     39  C   UNL     1      -1.449  15.138 -37.603  0.00  0.00    +0.020 A 
ATOM     40  C   UNL     1      -2.320  14.436 -36.791  0.00  0.00    +0.020 A 
ATOM     41  C   UNL     1      -2.272  14.601 -35.420  0.00  0.00    +0.010 A 
ENDBRANCH  35  36
BRANCH  35  42
ATOM     42  C   UNL     1      -0.393  14.620 -32.763  0.00  0.00    -0.080 A 
ATOM     43  C   UNL     1      -0.904  13.403 -32.354  0.00  0.00    +0.020 A 
ATOM     44  C   UNL     1      -0.066  12.453 -31.801  0.00  0.00    +0.020 A 
ATOM     45  C   UNL     1       1.283  12.719 -31.660  0.00  0.00    +0.010 A 
ATOM     46  C   UNL     1       1.794  13.937 -32.070  0.00  0.00    +0.000 A 
ATOM     47  C   UNL     1       0.957  14.886 -32.626  0.00  0.00    +0.000 A 
ENDBRANCH  35  42
ENDBRANCH  34  35
ENDBRANCH  33  34
ENDBRANCH  30  33
ENDBRANCH  29  30
ENDBRANCH  26  29
ENDBRANCH  25  26
ENDBRANCH   1  25
TORSDOF 14
ENDMDL
MODEL 9
REMARK VINA RESULT:      -6.7      3.987      6.574
REMARK  Name = ZINC000019685788
REMARK  20 active torsions:
REMARK  status: ('A' for Active; 'I' for Inactive)
REMARK    1  A    between atoms: C1_1  and  O2_2
REMARK    2  A    between atoms: O2_2  and  C3_3
REMARK    3  A    between atoms: C3_3  and  C5_5
REMARK    4  A    between atoms: C6_6  and  C7_7
REMARK    5  A    between atoms: C9_9  and  C10_10
REMARK    6  A    between atoms: C11_11  and  C12_12
REMARK    7  A    between atoms: C12_12  and  O14_14
REMARK    8  A    between atoms: O14_14  and  C15_15
REMARK    9  A    between atoms: C15_15  and  C16_16
REMARK   10  A    between atoms: C15_15  and  C17_17
REMARK   11  A    between atoms: C15_15  and  C18_18
REMARK   12  A    between atoms: C18_18  and  N19_19
REMARK   13  A    between atoms: N19_19  and  C21_21
REMARK   14  A    between atoms: N19_19  and  C22_22
REMARK   15  A    between atoms: C22_22  and  C23_23
REMARK   16  A    between atoms: C23_23  and  C24_24
REMARK   17  A    between atoms: C24_24  and  C25_25
REMARK   18  A    between atoms: C24_24  and  C31_31
REMARK   19  A    between atoms: C37_37  and  C39_39
REMARK   20  A    between atoms: C43_43  and  N44_44
REMARK                            x       y       z     vdW  Elec       q    Type
REMARK                         _______ _______ _______ _____ _____    ______ ____
ROOT
ATOM      1  C   UNL     1       0.504  20.093 -31.691  0.00  0.00    +0.530 C 
ATOM      2  O   UNL     1       1.077  20.315 -32.742  0.00  0.00    -0.500 OA
ENDROOT
BRANCH   1   8
ATOM      3  C   UNL     1       3.173  19.495 -29.089  0.00  0.00    -0.230 C 
ATOM      4  C   UNL     1       2.822  20.476 -28.240  0.00  0.00    +0.200 C 
ATOM      5  N   UNL     1       1.632  21.135 -28.385  0.00  0.00    -0.620 N 
ATOM      6  H   UNL     1       1.270  21.647 -27.645  0.00  0.00    +0.430 HD
ATOM      7  C   UNL     1       0.950  21.076 -29.570  0.00  0.00    +0.270 C 
ATOM      8  C   UNL     1       1.223  20.119 -30.474  0.00  0.00    -0.290 C 
ATOM      9  C   UNL     1      -0.120  22.095 -29.865  0.00  0.00    +0.160 C 
ATOM     10  C   UNL     1       3.750  20.855 -27.114  0.00  0.00    +0.140 C 
ATOM     11  C   UNL     1       2.279  19.083 -30.223  0.00  0.00    +0.190 C 
BRANCH  11  12
ATOM     12  C   UNL     1       1.617  17.777 -29.868  0.00  0.00    -0.070 A 
ATOM     13  C   UNL     1       2.167  16.584 -30.296  0.00  0.00    +0.100 A 
ATOM     14  C   UNL     1       1.559  15.385 -29.970  0.00  0.00    +0.040 A 
ATOM     15  C   UNL     1       0.401  15.381 -29.216  0.00  0.00    +0.110 A 
ATOM     16  C   UNL     1      -0.149  16.573 -28.787  0.00  0.00    -0.060 A 
ATOM     17  C   UNL     1       0.460  17.772 -29.109  0.00  0.00    +0.080 A 
BRANCH  16  18
ATOM     18  N   UNL     1      -1.390  16.569 -27.979  0.00  0.00    +0.020 N 
ATOM     19  O   UNL     1      -1.451  15.905 -26.960  0.00  0.00    -0.170 OA
ATOM     20  O   UNL     1      -2.350  17.230 -28.335  0.00  0.00    -0.140 OA
ENDBRANCH  16  18
ENDBRANCH  11  12
BRANCH   3  21
ATOM     21  C   UNL     1       4.416  18.841 -28.914  0.00  0.00    +0.530 C 
ATOM     22  O   UNL     1       5.360  19.128 -29.626  0.00  0.00    -0.490 OA
BRANCH  21  24
ATOM     23  C   UNL     1       5.827  17.805 -27.318  0.00  0.00    +0.270 C 
ATOM     24  O   UNL     1       4.553  17.898 -27.957  0.00  0.00    -0.350 OA
ENDBRANCH  21  24
ENDBRANCH   3  21
ENDBRANCH   1   8
BRANCH   1  25
ATOM     25  O   UNL     1      -0.818  19.820 -31.689  0.00  0.00    -0.350 OA
BRANCH  25  26
ATOM     26  C   UNL     1      -1.287  18.872 -32.649  0.00  0.00    +0.110 C 
ATOM     27  C   UNL     1      -0.262  17.745 -32.794  0.00  0.00    +0.070 C 
ATOM     28  C   UNL     1      -1.477  19.564 -34.000  0.00  0.00    +0.050 C 
BRANCH  26  29
ATOM     29  C   UNL     1      -2.622  18.290 -32.181  0.00  0.00    +0.300 C 
BRANCH  29  30
ATOM     30  N   UNL     1      -2.984  17.149 -33.033  0.00  0.00    -0.390 N 
ATOM     31  C   UNL     1      -4.235  17.447 -33.743  0.00  0.00    +0.300 C 
ATOM     32  H   UNL     1      -2.249  16.983 -33.703  0.00  0.00    +0.420 HD
BRANCH  30  33
ATOM     33  C   UNL     1      -3.168  15.954 -32.200  0.00  0.00    +0.270 C 
BRANCH  33  34
ATOM     34  C   UNL     1      -2.844  14.705 -33.021  0.00  0.00    +0.040 C 
BRANCH  34  35
ATOM     35  C   UNL     1      -1.553  14.933 -33.809  0.00  0.00    +0.110 C 
BRANCH  35  36
ATOM     36  C   UNL     1      -1.779  14.579 -35.256  0.00  0.00    -0.090 A 
ATOM     37  C   UNL     1      -1.985  15.579 -36.189  0.00  0.00    +0.000 A 
ATOM     38  C   UNL     1      -2.192  15.255 -37.515  0.00  0.00    +0.000 A 
ATOM     39  C   UNL     1      -2.193  13.930 -37.912  0.00  0.00    +0.020 A 
ATOM     40  C   UNL     1      -1.986  12.930 -36.980  0.00  0.00    +0.020 A 
ATOM     41  C   UNL     1      -1.775  13.255 -35.653  0.00  0.00    +0.010 A 
ENDBRANCH  35  36
BRANCH  35  42
ATOM     42  C   UNL     1      -0.459  14.062 -33.245  0.00  0.00    -0.080 A 
ATOM     43  C   UNL     1      -0.769  13.054 -32.352  0.00  0.00    +0.020 A 
ATOM     44  C   UNL     1       0.234  12.256 -31.834  0.00  0.00    +0.020 A 
ATOM     45  C   UNL     1       1.547  12.465 -32.212  0.00  0.00    +0.010 A 
ATOM     46  C   UNL     1       1.857  13.473 -33.106  0.00  0.00    +0.000 A 
ATOM     47  C   UNL     1       0.854  14.269 -33.626  0.00  0.00    +0.000 A 
ENDBRANCH  35  42
ENDBRANCH  34  35
ENDBRANCH  33  34
ENDBRANCH  30  33
ENDBRANCH  29  30
ENDBRANCH  26  29
ENDBRANCH  25  26
ENDBRANCH   1  25
TORSDOF 14
ENDMDL
