REMARK  Name = ZINC000027990463
REMARK  12 active torsions:
REMARK  status: ('A' for Active; 'I' for Inactive)
REMARK    1  A    between atoms: C2_2  and  C36_36
REMARK    2  A    between atoms: N3_3  and  C4_4
REMARK    3  A    between atoms: N7_7  and  C9_9
REMARK    4  A    between atoms: C9_9  and  C10_10
REMARK    5  A    between atoms: C10_10  and  C11_11
REMARK    6  A    between atoms: C11_11  and  C12_12
REMARK    7  A    between atoms: C12_12  and  C13_13
REMARK    8  A    between atoms: C13_13  and  C14_14
REMARK    9  A    between atoms: N16_16  and  C17_17
REMARK   10  A    between atoms: C17_17  and  C18_18
REMARK   11  A    between atoms: C41_41  and  C42_42
REMARK   12  A    between atoms: C45_45  and  C46_46
REMARK                            x       y       z     vdW  Elec       q    Type
REMARK                         _______ _______ _______ _____ _____    ______ ____
ROOT
ATOM      1  C   UNL     1       2.209   1.061   0.030  0.00  0.00    +0.250 C 
ATOM      2  C   UNL     1       2.593   0.731  -1.415  0.00  0.00    +0.050 C 
ATOM      3  C   UNL     1       3.938   0.001  -1.427  0.00  0.00    +0.260 C 
ATOM      4  N   UNL     1       4.968   0.858  -0.829  0.00  0.00    -0.380 N 
ATOM      5  C   UNL     1       4.644   1.120   0.579  0.00  0.00    +0.260 C 
ATOM      6  H   UNL     1       5.011   1.732  -1.331  0.00  0.00    +0.420 HD
ATOM      7  C   UNL     1       3.326   1.893   0.667  0.00  0.00    +0.050 C 
ENDROOT
BRANCH   1  10
ATOM      8  O   UNL     1      -0.256  -0.031  -0.011  0.00  0.00    -0.510 OA
ATOM      9  C   UNL     1      -0.225   1.184   0.020  0.00  0.00    +0.560 C 
ATOM     10  N   UNL     1       0.960   1.827   0.043  0.00  0.00    -0.730 N 
ATOM     11  H   UNL     1       0.986   2.796   0.068  0.00  0.00    +0.410 HD
BRANCH   9  12
ATOM     12  C   UNL     1      -1.483   1.956   0.027  0.00  0.00    -0.130 A 
ATOM     13  C   UNL     1      -1.568   3.154   0.736  0.00  0.00    +0.040 A 
ATOM     14  C   UNL     1      -2.747   3.871   0.739  0.00  0.00    +0.020 A 
ATOM     15  C   UNL     1      -3.850   3.409   0.041  0.00  0.00    +0.060 A 
ATOM     16  C   UNL     1      -3.784   2.225  -0.666  0.00  0.00    +0.030 A 
ATOM     17  C   UNL     1      -2.603   1.490  -0.686  0.00  0.00    +0.000 A 
BRANCH  17  18
ATOM     18  C   UNL     1      -2.528   0.219  -1.444  0.00  0.00    -0.010 A 
ATOM     19  C   UNL     1      -1.554   0.046  -2.427  0.00  0.00    +0.020 A 
ATOM     20  C   UNL     1      -1.489  -1.140  -3.130  0.00  0.00    +0.060 A 
ATOM     21  C   UNL     1      -2.387  -2.157  -2.859  0.00  0.00    -0.180 A 
ATOM     22  C   UNL     1      -3.355  -1.992  -1.885  0.00  0.00    +0.080 A 
ATOM     23  C   UNL     1      -3.426  -0.812  -1.172  0.00  0.00    +0.040 A 
BRANCH  21  24
ATOM     24  C   UNL     1      -2.310  -3.450  -3.629  0.00  0.00    +0.510 C 
ATOM     25  F   UNL     1      -1.811  -3.200  -4.912  0.00  0.00    -0.180 F 
ATOM     26  F   UNL     1      -3.588  -4.011  -3.727  0.00  0.00    -0.170 F 
ATOM     27  F   UNL     1      -1.460  -4.339  -2.964  0.00  0.00    -0.180 F 
ENDBRANCH  21  24
ENDBRANCH  17  18
ENDBRANCH   9  12
ENDBRANCH   1  10
BRANCH   4  28
ATOM     28  C   UNL     1       6.271   0.184  -0.911  0.00  0.00    +0.250 C 
BRANCH  28  29
ATOM     29  C   UNL     1       7.324   1.019  -0.178  0.00  0.00    +0.030 C 
BRANCH  29  30
ATOM     30  C   UNL     1       8.681   0.317  -0.264  0.00  0.00    +0.040 C 
BRANCH  30  31
ATOM     31  C   UNL     1       9.733   1.152   0.469  0.00  0.00    +0.080 C 
BRANCH  31  32
ATOM     32  C   UNL     1      11.112   0.516   0.277  0.00  0.00    +0.020 C 
ATOM     33  C   UNL     1      11.066  -0.946   0.650  0.00  0.00    -0.090 A 
ATOM     34  C   UNL     1      10.768  -1.591   1.831  0.00  0.00    +0.040 A 
ATOM     35  C   UNL     1      10.805  -2.973   1.894  0.00  0.00    +0.020 A 
ATOM     36  C   UNL     1      11.140  -3.709   0.772  0.00  0.00    +0.020 A 
ATOM     37  C   UNL     1      11.439  -3.072  -0.414  0.00  0.00    +0.040 A 
ATOM     38  C   UNL     1      11.405  -1.678  -0.485  0.00  0.00    -0.050 A 
ATOM     39  C   UNL     1      11.676  -0.750  -1.610  0.00  0.00    -0.050 A 
ATOM     40  C   UNL     1      12.045  -0.993  -2.934  0.00  0.00    +0.040 A 
ATOM     41  C   UNL     1      12.239   0.064  -3.800  0.00  0.00    +0.020 A 
ATOM     42  C   UNL     1      12.070   1.364  -3.362  0.00  0.00    +0.020 A 
ATOM     43  C   UNL     1      11.703   1.613  -2.050  0.00  0.00    +0.040 A 
ATOM     44  C   UNL     1      11.508   0.563  -1.178  0.00  0.00    -0.090 A 
BRANCH  32  45
ATOM     45  C   UNL     1      12.135   1.235   1.118  0.00  0.00    +0.540 C 
ATOM     46  N   UNL     1      13.423   0.836   1.100  0.00  0.00    -0.720 N 
ATOM     47  H   UNL     1      13.690   0.086   0.546  0.00  0.00    +0.410 HD
ATOM     48  O   UNL     1      11.801   2.173   1.810  0.00  0.00    -0.520 OA
BRANCH  46  49
ATOM     49  C   UNL     1      14.418   1.535   1.917  0.00  0.00    +0.320 C 
BRANCH  49  50
ATOM     50  C   UNL     1      15.789   0.888   1.714  0.00  0.00    +0.450 C 
ATOM     51  F   UNL     1      15.732  -0.456   2.098  0.00  0.00    -0.180 F 
ATOM     52  F   UNL     1      16.740   1.556   2.494  0.00  0.00    -0.170 F 
ATOM     53  F   UNL     1      16.151   0.973   0.365  0.00  0.00    -0.180 F 
ENDBRANCH  49  50
ENDBRANCH  46  49
ENDBRANCH  32  45
ENDBRANCH  31  32
ENDBRANCH  30  31
ENDBRANCH  29  30
ENDBRANCH  28  29
ENDBRANCH   4  28
TORSDOF 12
