MODEL 1
REMARK VINA RESULT:      -8.7      0.000      0.000
REMARK  Name = ZINC000027990463
REMARK  12 active torsions:
REMARK  status: ('A' for Active; 'I' for Inactive)
REMARK    1  A    between atoms: C2_2  and  C36_36
REMARK    2  A    between atoms: N3_3  and  C4_4
REMARK    3  A    between atoms: N7_7  and  C9_9
REMARK    4  A    between atoms: C9_9  and  C10_10
REMARK    5  A    between atoms: C10_10  and  C11_11
REMARK    6  A    between atoms: C11_11  and  C12_12
REMARK    7  A    between atoms: C12_12  and  C13_13
REMARK    8  A    between atoms: C13_13  and  C14_14
REMARK    9  A    between atoms: N16_16  and  C17_17
REMARK   10  A    between atoms: C17_17  and  C18_18
REMARK   11  A    between atoms: C41_41  and  C42_42
REMARK   12  A    between atoms: C45_45  and  C46_46
REMARK                            x       y       z     vdW  Elec       q    Type
REMARK                         _______ _______ _______ _____ _____    ______ ____
ROOT
ATOM      1  C   UNL     1      -2.561  13.900 -38.155  0.00  0.00    +0.250 C 
ATOM      2  C   UNL     1      -1.106  14.170 -38.551  0.00  0.00    +0.050 C 
ATOM      3  C   UNL     1      -0.504  15.200 -37.593  0.00  0.00    +0.260 C 
ATOM      4  N   UNL     1      -1.273  16.448 -37.666  0.00  0.00    -0.380 N 
ATOM      5  C   UNL     1      -2.651  16.213 -37.219  0.00  0.00    +0.260 C 
ATOM      6  H   UNL     1      -1.282  16.782 -38.618  0.00  0.00    +0.420 HD
ATOM      7  C   UNL     1      -3.335  15.221 -38.163  0.00  0.00    +0.050 C 
ENDROOT
BRANCH   1  10
ATOM      8  O   UNL     1      -3.770  11.584 -37.489  0.00  0.00    -0.510 OA
ATOM      9  C   UNL     1      -3.748  11.837 -38.678  0.00  0.00    +0.560 C 
ATOM     10  N   UNL     1      -3.166  12.972 -39.114  0.00  0.00    -0.730 N 
ATOM     11  H   UNL     1      -3.148  13.175 -40.062  0.00  0.00    +0.410 HD
BRANCH   9  12
ATOM     12  C   UNL     1      -4.352  10.899 -39.645  0.00  0.00    -0.130 A 
ATOM     13  C   UNL     1      -5.595  11.180 -40.212  0.00  0.00    +0.040 A 
ATOM     14  C   UNL     1      -6.155  10.299 -41.114  0.00  0.00    +0.020 A 
ATOM     15  C   UNL     1      -5.491   9.136 -41.464  0.00  0.00    +0.060 A 
ATOM     16  C   UNL     1      -4.259   8.842 -40.912  0.00  0.00    +0.030 A 
ATOM     17  C   UNL     1      -3.675   9.719 -40.004  0.00  0.00    +0.000 A 
BRANCH  17  18
ATOM     18  C   UNL     1      -2.354   9.408 -39.410  0.00  0.00    -0.010 A 
ATOM     19  C   UNL     1      -1.203  10.022 -39.902  0.00  0.00    +0.020 A 
ATOM     20  C   UNL     1       0.026   9.728 -39.345  0.00  0.00    +0.060 A 
ATOM     21  C   UNL     1       0.115   8.827 -38.299  0.00  0.00    -0.180 A 
ATOM     22  C   UNL     1      -1.023   8.215 -37.806  0.00  0.00    +0.080 A 
ATOM     23  C   UNL     1      -2.257   8.505 -38.352  0.00  0.00    +0.040 A 
BRANCH  21  24
ATOM     24  C   UNL     1       1.459   8.511 -37.694  0.00  0.00    +0.510 C 
ATOM     25  F   UNL     1       1.458   7.195 -37.218  0.00  0.00    -0.180 F 
ATOM     26  F   UNL     1       1.711   9.390 -36.635  0.00  0.00    -0.170 F 
ATOM     27  F   UNL     1       2.453   8.654 -38.667  0.00  0.00    -0.180 F 
ENDBRANCH  21  24
ENDBRANCH  17  18
ENDBRANCH   9  12
ENDBRANCH   1  10
BRANCH   4  28
ATOM     28  C   UNL     1      -0.646  17.458 -36.802  0.00  0.00    +0.250 C 
BRANCH  28  29
ATOM     29  C   UNL     1      -1.646  17.905 -35.732  0.00  0.00    +0.030 C 
BRANCH  29  30
ATOM     30  C   UNL     1      -0.969  17.881 -34.360  0.00  0.00    +0.040 C 
BRANCH  30  31
ATOM     31  C   UNL     1      -0.565  16.446 -34.017  0.00  0.00    +0.080 C 
BRANCH  31  32
ATOM     32  C   UNL     1      -0.923  16.152 -32.558  0.00  0.00    +0.020 C 
ATOM     33  C   UNL     1      -0.314  17.196 -31.654  0.00  0.00    -0.090 A 
ATOM     34  C   UNL     1       0.991  17.567 -31.415  0.00  0.00    +0.040 A 
ATOM     35  C   UNL     1       1.271  18.579 -30.513  0.00  0.00    +0.020 A 
ATOM     36  C   UNL     1       0.240  19.221 -29.852  0.00  0.00    +0.020 A 
ATOM     37  C   UNL     1      -1.070  18.858 -30.085  0.00  0.00    +0.040 A 
ATOM     38  C   UNL     1      -1.359  17.836 -30.992  0.00  0.00    -0.050 A 
ATOM     39  C   UNL     1      -2.652  17.253 -31.426  0.00  0.00    -0.050 A 
ATOM     40  C   UNL     1      -3.965  17.551 -31.059  0.00  0.00    +0.040 A 
ATOM     41  C   UNL     1      -5.013  16.850 -31.621  0.00  0.00    +0.020 A 
ATOM     42  C   UNL     1      -4.768  15.853 -32.546  0.00  0.00    +0.020 A 
ATOM     43  C   UNL     1      -3.468  15.552 -32.916  0.00  0.00    +0.040 A 
ATOM     44  C   UNL     1      -2.415  16.246 -32.359  0.00  0.00    -0.090 A 
BRANCH  32  45
ATOM     45  C   UNL     1      -0.432  14.780 -32.171  0.00  0.00    +0.540 C 
ATOM     46  N   UNL     1       0.431  14.123 -32.972  0.00  0.00    -0.720 N 
ATOM     47  H   UNL     1       0.735  14.533 -33.796  0.00  0.00    +0.410 HD
ATOM     48  O   UNL     1      -0.813  14.268 -31.140  0.00  0.00    -0.520 OA
BRANCH  46  49
ATOM     49  C   UNL     1       0.908  12.790 -32.596  0.00  0.00    +0.320 C 
BRANCH  49  50
ATOM     50  C   UNL     1       0.313  11.749 -33.546  0.00  0.00    +0.450 C 
ATOM     51  F   UNL     1      -1.083  11.789 -33.465  0.00  0.00    -0.180 F 
ATOM     52  F   UNL     1       0.765  10.475 -33.184  0.00  0.00    -0.170 F 
ATOM     53  F   UNL     1       0.713  12.030 -34.857  0.00  0.00    -0.180 F 
ENDBRANCH  49  50
ENDBRANCH  46  49
ENDBRANCH  32  45
ENDBRANCH  31  32
ENDBRANCH  30  31
ENDBRANCH  29  30
ENDBRANCH  28  29
ENDBRANCH   4  28
TORSDOF 12
ENDMDL
MODEL 2
REMARK VINA RESULT:      -8.5      6.262     10.031
REMARK  Name = ZINC000027990463
REMARK  12 active torsions:
REMARK  status: ('A' for Active; 'I' for Inactive)
REMARK    1  A    between atoms: C2_2  and  C36_36
REMARK    2  A    between atoms: N3_3  and  C4_4
REMARK    3  A    between atoms: N7_7  and  C9_9
REMARK    4  A    between atoms: C9_9  and  C10_10
REMARK    5  A    between atoms: C10_10  and  C11_11
REMARK    6  A    between atoms: C11_11  and  C12_12
REMARK    7  A    between atoms: C12_12  and  C13_13
REMARK    8  A    between atoms: C13_13  and  C14_14
REMARK    9  A    between atoms: N16_16  and  C17_17
REMARK   10  A    between atoms: C17_17  and  C18_18
REMARK   11  A    between atoms: C41_41  and  C42_42
REMARK   12  A    between atoms: C45_45  and  C46_46
REMARK                            x       y       z     vdW  Elec       q    Type
REMARK                         _______ _______ _______ _____ _____    ______ ____
ROOT
ATOM      1  C   UNL     1      -3.859  15.741 -32.519  0.00  0.00    +0.250 C 
ATOM      2  C   UNL     1      -5.153  15.286 -31.839  0.00  0.00    +0.050 C 
ATOM      3  C   UNL     1      -6.166  16.433 -31.859  0.00  0.00    +0.260 C 
ATOM      4  N   UNL     1      -5.615  17.588 -31.141  0.00  0.00    -0.380 N 
ATOM      5  C   UNL     1      -4.413  18.076 -31.829  0.00  0.00    +0.260 C 
ATOM      6  H   UNL     1      -5.375  17.316 -30.200  0.00  0.00    +0.420 HD
ATOM      7  C   UNL     1      -3.333  16.991 -31.807  0.00  0.00    +0.050 C 
ENDROOT
BRANCH   1  10
ATOM      8  O   UNL     1      -1.695  15.543 -34.115  0.00  0.00    -0.510 OA
ATOM      9  C   UNL     1      -1.810  14.665 -33.283  0.00  0.00    +0.560 C 
ATOM     10  N   UNL     1      -2.859  14.673 -32.435  0.00  0.00    -0.730 N 
ATOM     11  H   UNL     1      -2.951  13.974 -31.770  0.00  0.00    +0.410 HD
BRANCH   9  12
ATOM     12  C   UNL     1      -0.806  13.586 -33.202  0.00  0.00    -0.130 A 
ATOM     13  C   UNL     1      -0.936  12.444 -33.993  0.00  0.00    +0.040 A 
ATOM     14  C   UNL     1       0.005  11.439 -33.913  0.00  0.00    +0.020 A 
ATOM     15  C   UNL     1       1.083  11.555 -33.051  0.00  0.00    +0.060 A 
ATOM     16  C   UNL     1       1.228  12.678 -32.260  0.00  0.00    +0.030 A 
ATOM     17  C   UNL     1       0.292  13.705 -32.330  0.00  0.00    +0.000 A 
BRANCH  17  18
ATOM     18  C   UNL     1       0.444  14.912 -31.484  0.00  0.00    -0.010 A 
ATOM     19  C   UNL     1       0.013  14.896 -30.158  0.00  0.00    +0.020 A 
ATOM     20  C   UNL     1       0.158  16.023 -29.374  0.00  0.00    +0.060 A 
ATOM     21  C   UNL     1       0.731  17.166 -29.902  0.00  0.00    -0.180 A 
ATOM     22  C   UNL     1       1.161  17.188 -31.217  0.00  0.00    +0.080 A 
ATOM     23  C   UNL     1       1.026  16.065 -32.008  0.00  0.00    +0.040 A 
BRANCH  21  24
ATOM     24  C   UNL     1       0.887  18.393 -29.041  0.00  0.00    +0.510 C 
ATOM     25  F   UNL     1      -0.092  18.389 -28.042  0.00  0.00    -0.180 F 
ATOM     26  F   UNL     1       0.742  19.539 -29.831  0.00  0.00    -0.170 F 
ATOM     27  F   UNL     1       2.154  18.391 -28.451  0.00  0.00    -0.180 F 
ENDBRANCH  21  24
ENDBRANCH  17  18
ENDBRANCH   9  12
ENDBRANCH   1  10
BRANCH   4  28
ATOM     28  C   UNL     1      -6.619  18.659 -31.098  0.00  0.00    +0.250 C 
BRANCH  28  29
ATOM     29  C   UNL     1      -6.566  19.354 -29.735  0.00  0.00    +0.030 C 
BRANCH  29  30
ATOM     30  C   UNL     1      -5.867  18.440 -28.725  0.00  0.00    +0.040 C 
BRANCH  30  31
ATOM     31  C   UNL     1      -6.663  18.425 -27.418  0.00  0.00    +0.080 C 
BRANCH  31  32
ATOM     32  C   UNL     1      -5.726  18.737 -26.248  0.00  0.00    +0.020 C 
ATOM     33  C   UNL     1      -4.738  17.612 -26.060  0.00  0.00    -0.090 A 
ATOM     34  C   UNL     1      -4.903  16.275 -25.766  0.00  0.00    +0.040 A 
ATOM     35  C   UNL     1      -3.798  15.451 -25.646  0.00  0.00    +0.020 A 
ATOM     36  C   UNL     1      -2.526  15.967 -25.822  0.00  0.00    +0.020 A 
ATOM     37  C   UNL     1      -2.352  17.302 -26.117  0.00  0.00    +0.040 A 
ATOM     38  C   UNL     1      -3.463  18.140 -26.238  0.00  0.00    -0.050 A 
ATOM     39  C   UNL     1      -3.565  19.588 -26.543  0.00  0.00    -0.050 A 
ATOM     40  C   UNL     1      -2.583  20.546 -26.801  0.00  0.00    +0.040 A 
ATOM     41  C   UNL     1      -2.945  21.851 -27.063  0.00  0.00    +0.020 A 
ATOM     42  C   UNL     1      -4.278  22.216 -27.071  0.00  0.00    +0.020 A 
ATOM     43  C   UNL     1      -5.259  21.272 -26.817  0.00  0.00    +0.040 A 
ATOM     44  C   UNL     1      -4.905  19.966 -26.553  0.00  0.00    -0.090 A 
BRANCH  32  45
ATOM     45  C   UNL     1      -6.525  18.945 -24.987  0.00  0.00    +0.540 C 
ATOM     46  N   UNL     1      -5.892  19.181 -23.820  0.00  0.00    -0.720 N 
ATOM     47  H   UNL     1      -4.923  19.217 -23.793  0.00  0.00    +0.410 HD
ATOM     48  O   UNL     1      -7.736  18.901 -25.022  0.00  0.00    -0.520 OA
BRANCH  46  49
ATOM     49  C   UNL     1      -6.668  19.384 -22.594  0.00  0.00    +0.320 C 
BRANCH  49  50
ATOM     50  C   UNL     1      -6.722  20.877 -22.266  0.00  0.00    +0.450 C 
ATOM     51  F   UNL     1      -5.420  21.377 -22.156  0.00  0.00    -0.180 F 
ATOM     52  F   UNL     1      -7.398  21.064 -21.055  0.00  0.00    -0.170 F 
ATOM     53  F   UNL     1      -7.397  21.555 -23.287  0.00  0.00    -0.180 F 
ENDBRANCH  49  50
ENDBRANCH  46  49
ENDBRANCH  32  45
ENDBRANCH  31  32
ENDBRANCH  30  31
ENDBRANCH  29  30
ENDBRANCH  28  29
ENDBRANCH   4  28
TORSDOF 12
ENDMDL
MODEL 3
REMARK VINA RESULT:      -8.4      2.677     10.213
REMARK  Name = ZINC000027990463
REMARK  12 active torsions:
REMARK  status: ('A' for Active; 'I' for Inactive)
REMARK    1  A    between atoms: C2_2  and  C36_36
REMARK    2  A    between atoms: N3_3  and  C4_4
REMARK    3  A    between atoms: N7_7  and  C9_9
REMARK    4  A    between atoms: C9_9  and  C10_10
REMARK    5  A    between atoms: C10_10  and  C11_11
REMARK    6  A    between atoms: C11_11  and  C12_12
REMARK    7  A    between atoms: C12_12  and  C13_13
REMARK    8  A    between atoms: C13_13  and  C14_14
REMARK    9  A    between atoms: N16_16  and  C17_17
REMARK   10  A    between atoms: C17_17  and  C18_18
REMARK   11  A    between atoms: C41_41  and  C42_42
REMARK   12  A    between atoms: C45_45  and  C46_46
REMARK                            x       y       z     vdW  Elec       q    Type
REMARK                         _______ _______ _______ _____ _____    ______ ____
ROOT
ATOM      1  C   UNL     1      -1.213  14.220 -37.240  0.00  0.00    +0.250 C 
ATOM      2  C   UNL     1      -2.606  14.834 -37.072  0.00  0.00    +0.050 C 
ATOM      3  C   UNL     1      -3.451  14.517 -38.307  0.00  0.00    +0.260 C 
ATOM      4  N   UNL     1      -2.808  15.078 -39.501  0.00  0.00    -0.380 N 
ATOM      5  C   UNL     1      -1.501  14.442 -39.710  0.00  0.00    +0.260 C 
ATOM      6  H   UNL     1      -2.680  16.071 -39.378  0.00  0.00    +0.420 HD
ATOM      7  C   UNL     1      -0.582  14.757 -38.528  0.00  0.00    +0.050 C 
ENDROOT
BRANCH   1  10
ATOM      8  O   UNL     1      -0.892  12.703 -35.034  0.00  0.00    -0.510 OA
ATOM      9  C   UNL     1      -0.281  13.754 -35.037  0.00  0.00    +0.560 C 
ATOM     10  N   UNL     1      -0.375  14.585 -36.095  0.00  0.00    -0.730 N 
ATOM     11  H   UNL     1       0.112  15.423 -36.098  0.00  0.00    +0.410 HD
BRANCH   9  12
ATOM     12  C   UNL     1       0.559  14.125 -33.881  0.00  0.00    -0.130 A 
ATOM     13  C   UNL     1       1.843  13.596 -33.747  0.00  0.00    +0.040 A 
ATOM     14  C   UNL     1       2.623  13.946 -32.664  0.00  0.00    +0.020 A 
ATOM     15  C   UNL     1       2.140  14.821 -31.706  0.00  0.00    +0.060 A 
ATOM     16  C   UNL     1       0.871  15.353 -31.821  0.00  0.00    +0.030 A 
ATOM     17  C   UNL     1       0.071  15.017 -32.909  0.00  0.00    +0.000 A 
BRANCH  17  18
ATOM     18  C   UNL     1      -1.291  15.587 -33.037  0.00  0.00    -0.010 A 
ATOM     19  C   UNL     1      -1.468  16.870 -33.555  0.00  0.00    +0.020 A 
ATOM     20  C   UNL     1      -2.739  17.395 -33.672  0.00  0.00    +0.060 A 
ATOM     21  C   UNL     1      -3.836  16.650 -33.278  0.00  0.00    -0.180 A 
ATOM     22  C   UNL     1      -3.668  15.377 -32.764  0.00  0.00    +0.080 A 
ATOM     23  C   UNL     1      -2.402  14.840 -32.647  0.00  0.00    +0.040 A 
BRANCH  21  24
ATOM     24  C   UNL     1      -5.221  17.229 -33.409  0.00  0.00    +0.510 C 
ATOM     25  F   UNL     1      -5.335  18.358 -32.590  0.00  0.00    -0.180 F 
ATOM     26  F   UNL     1      -6.165  16.273 -33.019  0.00  0.00    -0.170 F 
ATOM     27  F   UNL     1      -5.450  17.595 -34.740  0.00  0.00    -0.180 F 
ENDBRANCH  21  24
ENDBRANCH  17  18
ENDBRANCH   9  12
ENDBRANCH   1  10
BRANCH   4  28
ATOM     28  C   UNL     1      -3.660  14.837 -40.673  0.00  0.00    +0.250 C 
BRANCH  28  29
ATOM     29  C   UNL     1      -3.015  13.769 -41.561  0.00  0.00    +0.030 C 
BRANCH  29  30
ATOM     30  C   UNL     1      -3.878  12.506 -41.548  0.00  0.00    +0.040 C 
BRANCH  30  31
ATOM     31  C   UNL     1      -3.706  11.786 -40.209  0.00  0.00    +0.080 C 
BRANCH  31  32
ATOM     32  C   UNL     1      -3.217  10.358 -40.458  0.00  0.00    +0.020 C 
ATOM     33  C   UNL     1      -4.272   9.568 -41.194  0.00  0.00    -0.090 A 
ATOM     34  C   UNL     1      -5.567   9.227 -40.869  0.00  0.00    +0.040 A 
ATOM     35  C   UNL     1      -6.328   8.478 -41.750  0.00  0.00    +0.020 A 
ATOM     36  C   UNL     1      -5.790   8.071 -42.957  0.00  0.00    +0.020 A 
ATOM     37  C   UNL     1      -4.495   8.408 -43.291  0.00  0.00    +0.040 A 
ATOM     38  C   UNL     1      -3.721   9.163 -42.407  0.00  0.00    -0.050 A 
ATOM     39  C   UNL     1      -2.327   9.659 -42.508  0.00  0.00    -0.050 A 
ATOM     40  C   UNL     1      -1.372   9.519 -43.516  0.00  0.00    +0.040 A 
ATOM     41  C   UNL     1      -0.123  10.088 -43.366  0.00  0.00    +0.020 A 
ATOM     42  C   UNL     1       0.187  10.795 -42.219  0.00  0.00    +0.020 A 
ATOM     43  C   UNL     1      -0.755  10.938 -41.215  0.00  0.00    +0.040 A 
ATOM     44  C   UNL     1      -2.005  10.373 -41.356  0.00  0.00    -0.090 A 
BRANCH  32  45
ATOM     45  C   UNL     1      -2.885   9.688 -39.149  0.00  0.00    +0.540 C 
ATOM     46  N   UNL     1      -2.320   8.464 -39.142  0.00  0.00    -0.720 N 
ATOM     47  H   UNL     1      -2.128   8.015 -39.980  0.00  0.00    +0.410 HD
ATOM     48  O   UNL     1      -3.126  10.251 -38.102  0.00  0.00    -0.520 OA
BRANCH  46  49
ATOM     49  C   UNL     1      -1.998   7.813 -37.870  0.00  0.00    +0.320 C 
BRANCH  49  50
ATOM     50  C   UNL     1      -0.527   8.059 -37.531  0.00  0.00    +0.450 C 
ATOM     51  F   UNL     1      -0.436   9.017 -36.515  0.00  0.00    -0.180 F 
ATOM     52  F   UNL     1       0.143   8.522 -38.669  0.00  0.00    -0.170 F 
ATOM     53  F   UNL     1       0.060   6.864 -37.099  0.00  0.00    -0.180 F 
ENDBRANCH  49  50
ENDBRANCH  46  49
ENDBRANCH  32  45
ENDBRANCH  31  32
ENDBRANCH  30  31
ENDBRANCH  29  30
ENDBRANCH  28  29
ENDBRANCH   4  28
TORSDOF 12
ENDMDL
MODEL 4
REMARK VINA RESULT:      -8.4      4.776      7.479
REMARK  Name = ZINC000027990463
REMARK  12 active torsions:
REMARK  status: ('A' for Active; 'I' for Inactive)
REMARK    1  A    between atoms: C2_2  and  C36_36
REMARK    2  A    between atoms: N3_3  and  C4_4
REMARK    3  A    between atoms: N7_7  and  C9_9
REMARK    4  A    between atoms: C9_9  and  C10_10
REMARK    5  A    between atoms: C10_10  and  C11_11
REMARK    6  A    between atoms: C11_11  and  C12_12
REMARK    7  A    between atoms: C12_12  and  C13_13
REMARK    8  A    between atoms: C13_13  and  C14_14
REMARK    9  A    between atoms: N16_16  and  C17_17
REMARK   10  A    between atoms: C17_17  and  C18_18
REMARK   11  A    between atoms: C41_41  and  C42_42
REMARK   12  A    between atoms: C45_45  and  C46_46
REMARK                            x       y       z     vdW  Elec       q    Type
REMARK                         _______ _______ _______ _____ _____    ______ ____
ROOT
ATOM      1  C   UNL     1      -3.030  15.816 -33.779  0.00  0.00    +0.250 C 
ATOM      2  C   UNL     1      -4.271  15.611 -32.905  0.00  0.00    +0.050 C 
ATOM      3  C   UNL     1      -4.860  16.975 -32.535  0.00  0.00    +0.260 C 
ATOM      4  N   UNL     1      -3.862  17.756 -31.795  0.00  0.00    -0.380 N 
ATOM      5  C   UNL     1      -2.699  18.019 -32.651  0.00  0.00    +0.260 C 
ATOM      6  H   UNL     1      -3.569  17.240 -30.979  0.00  0.00    +0.420 HD
ATOM      7  C   UNL     1      -2.028  16.695 -33.025  0.00  0.00    +0.050 C 
ENDROOT
BRANCH   1  10
ATOM      8  O   UNL     1      -1.501  15.301 -35.939  0.00  0.00    -0.510 OA
ATOM      9  C   UNL     1      -1.669  14.363 -35.184  0.00  0.00    +0.560 C 
ATOM     10  N   UNL     1      -2.418  14.518 -34.074  0.00  0.00    -0.730 N 
ATOM     11  H   UNL     1      -2.552  13.771 -33.471  0.00  0.00    +0.410 HD
BRANCH   9  12
ATOM     12  C   UNL     1      -1.057  13.054 -35.484  0.00  0.00    -0.130 A 
ATOM     13  C   UNL     1      -1.388  12.376 -36.657  0.00  0.00    +0.040 A 
ATOM     14  C   UNL     1      -0.813  11.152 -36.932  0.00  0.00    +0.020 A 
ATOM     15  C   UNL     1       0.093  10.590 -36.049  0.00  0.00    +0.060 A 
ATOM     16  C   UNL     1       0.432  11.246 -34.883  0.00  0.00    +0.030 A 
ATOM     17  C   UNL     1      -0.132  12.484 -34.590  0.00  0.00    +0.000 A 
BRANCH  17  18
ATOM     18  C   UNL     1       0.229  13.191 -33.339  0.00  0.00    -0.010 A 
ATOM     19  C   UNL     1       1.361  14.005 -33.297  0.00  0.00    +0.020 A 
ATOM     20  C   UNL     1       1.693  14.662 -32.130  0.00  0.00    +0.060 A 
ATOM     21  C   UNL     1       0.904  14.516 -31.003  0.00  0.00    -0.180 A 
ATOM     22  C   UNL     1      -0.220  13.710 -31.038  0.00  0.00    +0.080 A 
ATOM     23  C   UNL     1      -0.565  13.053 -32.202  0.00  0.00    +0.040 A 
BRANCH  21  24
ATOM     24  C   UNL     1       1.271  15.236 -29.732  0.00  0.00    +0.510 C 
ATOM     25  F   UNL     1       2.664  15.295 -29.614  0.00  0.00    -0.180 F 
ATOM     26  F   UNL     1       0.739  14.549 -28.635  0.00  0.00    -0.170 F 
ATOM     27  F   UNL     1       0.752  16.534 -29.765  0.00  0.00    -0.180 F 
ENDBRANCH  21  24
ENDBRANCH  17  18
ENDBRANCH   9  12
ENDBRANCH   1  10
BRANCH   4  28
ATOM     28  C   UNL     1      -4.456  19.033 -31.376  0.00  0.00    +0.250 C 
BRANCH  28  29
ATOM     29  C   UNL     1      -5.095  18.870 -29.994  0.00  0.00    +0.030 C 
BRANCH  29  30
ATOM     30  C   UNL     1      -4.095  19.296 -28.917  0.00  0.00    +0.040 C 
BRANCH  30  31
ATOM     31  C   UNL     1      -3.164  18.124 -28.596  0.00  0.00    +0.080 C 
BRANCH  31  32
ATOM     32  C   UNL     1      -3.378  17.688 -27.144  0.00  0.00    +0.020 C 
ATOM     33  C   UNL     1      -3.244  18.875 -26.220  0.00  0.00    -0.090 A 
ATOM     34  C   UNL     1      -2.198  19.735 -25.964  0.00  0.00    +0.040 A 
ATOM     35  C   UNL     1      -2.352  20.760 -25.047  0.00  0.00    +0.020 A 
ATOM     36  C   UNL     1      -3.556  20.923 -24.386  0.00  0.00    +0.020 A 
ATOM     37  C   UNL     1      -4.608  20.067 -24.637  0.00  0.00    +0.040 A 
ATOM     38  C   UNL     1      -4.460  19.030 -25.560  0.00  0.00    -0.050 A 
ATOM     39  C   UNL     1      -5.407  17.983 -26.014  0.00  0.00    -0.050 A 
ATOM     40  C   UNL     1      -6.731  17.722 -25.656  0.00  0.00    +0.040 A 
ATOM     41  C   UNL     1      -7.407  16.668 -26.236  0.00  0.00    +0.020 A 
ATOM     42  C   UNL     1      -6.779  15.868 -27.172  0.00  0.00    +0.020 A 
ATOM     43  C   UNL     1      -5.466  16.121 -27.534  0.00  0.00    +0.040 A 
ATOM     44  C   UNL     1      -4.783  17.172 -26.958  0.00  0.00    -0.090 A 
BRANCH  32  45
ATOM     45  C   UNL     1      -2.379  16.624 -26.771  0.00  0.00    +0.540 C 
ATOM     46  N   UNL     1      -2.618  15.813 -25.720  0.00  0.00    -0.720 N 
ATOM     47  H   UNL     1      -3.433  15.917 -25.204  0.00  0.00    +0.410 HD
ATOM     48  O   UNL     1      -1.360  16.494 -27.416  0.00  0.00    -0.520 OA
BRANCH  46  49
ATOM     49  C   UNL     1      -1.647  14.778 -25.357  0.00  0.00    +0.320 C 
BRANCH  49  50
ATOM     50  C   UNL     1      -2.081  14.107 -24.053  0.00  0.00    +0.450 C 
ATOM     51  F   UNL     1      -1.013  14.109 -23.150  0.00  0.00    -0.180 F 
ATOM     52  F   UNL     1      -2.470  12.788 -24.313  0.00  0.00    -0.170 F 
ATOM     53  F   UNL     1      -3.159  14.810 -23.502  0.00  0.00    -0.180 F 
ENDBRANCH  49  50
ENDBRANCH  46  49
ENDBRANCH  32  45
ENDBRANCH  31  32
ENDBRANCH  30  31
ENDBRANCH  29  30
ENDBRANCH  28  29
ENDBRANCH   4  28
TORSDOF 12
ENDMDL
MODEL 5
REMARK VINA RESULT:      -8.3      4.614     10.804
REMARK  Name = ZINC000027990463
REMARK  12 active torsions:
REMARK  status: ('A' for Active; 'I' for Inactive)
REMARK    1  A    between atoms: C2_2  and  C36_36
REMARK    2  A    between atoms: N3_3  and  C4_4
REMARK    3  A    between atoms: N7_7  and  C9_9
REMARK    4  A    between atoms: C9_9  and  C10_10
REMARK    5  A    between atoms: C10_10  and  C11_11
REMARK    6  A    between atoms: C11_11  and  C12_12
REMARK    7  A    between atoms: C12_12  and  C13_13
REMARK    8  A    between atoms: C13_13  and  C14_14
REMARK    9  A    between atoms: N16_16  and  C17_17
REMARK   10  A    between atoms: C17_17  and  C18_18
REMARK   11  A    between atoms: C41_41  and  C42_42
REMARK   12  A    between atoms: C45_45  and  C46_46
REMARK                            x       y       z     vdW  Elec       q    Type
REMARK                         _______ _______ _______ _____ _____    ______ ____
ROOT
ATOM      1  C   UNL     1      -5.986  18.764 -28.717  0.00  0.00    +0.250 C 
ATOM      2  C   UNL     1      -6.275  19.689 -29.902  0.00  0.00    +0.050 C 
ATOM      3  C   UNL     1      -6.950  18.887 -31.017  0.00  0.00    +0.260 C 
ATOM      4  N   UNL     1      -6.062  17.801 -31.448  0.00  0.00    -0.380 N 
ATOM      5  C   UNL     1      -5.838  16.869 -30.335  0.00  0.00    +0.260 C 
ATOM      6  H   UNL     1      -5.179  18.186 -31.745  0.00  0.00    +0.420 HD
ATOM      7  C   UNL     1      -5.121  17.594 -29.195  0.00  0.00    +0.050 C 
ENDROOT
BRANCH   1  10
ATOM      8  O   UNL     1      -5.881  18.045 -26.120  0.00  0.00    -0.510 OA
ATOM      9  C   UNL     1      -5.280  19.064 -26.403  0.00  0.00    +0.560 C 
ATOM     10  N   UNL     1      -5.271  19.508 -27.676  0.00  0.00    -0.730 N 
ATOM     11  H   UNL     1      -4.792  20.320 -27.904  0.00  0.00    +0.410 HD
BRANCH   9  12
ATOM     12  C   UNL     1      -4.565  19.817 -25.354  0.00  0.00    -0.130 A 
ATOM     13  C   UNL     1      -5.270  20.641 -24.477  0.00  0.00    +0.040 A 
ATOM     14  C   UNL     1      -4.596  21.343 -23.499  0.00  0.00    +0.020 A 
ATOM     15  C   UNL     1      -3.221  21.234 -23.380  0.00  0.00    +0.060 A 
ATOM     16  C   UNL     1      -2.507  20.424 -24.240  0.00  0.00    +0.030 A 
ATOM     17  C   UNL     1      -3.168  19.704 -25.230  0.00  0.00    +0.000 A 
BRANCH  17  18
ATOM     18  C   UNL     1      -2.406  18.832 -26.154  0.00  0.00    -0.010 A 
ATOM     19  C   UNL     1      -1.738  19.384 -27.247  0.00  0.00    +0.020 A 
ATOM     20  C   UNL     1      -1.029  18.567 -28.105  0.00  0.00    +0.060 A 
ATOM     21  C   UNL     1      -0.979  17.203 -27.880  0.00  0.00    -0.180 A 
ATOM     22  C   UNL     1      -1.639  16.649 -26.798  0.00  0.00    +0.080 A 
ATOM     23  C   UNL     1      -2.346  17.457 -25.931  0.00  0.00    +0.040 A 
BRANCH  21  24
ATOM     24  C   UNL     1      -0.203  16.317 -28.820  0.00  0.00    +0.510 C 
ATOM     25  F   UNL     1      -0.866  16.245 -30.049  0.00  0.00    -0.180 F 
ATOM     26  F   UNL     1      -0.099  15.034 -28.271  0.00  0.00    -0.170 F 
ATOM     27  F   UNL     1       1.076  16.848 -29.011  0.00  0.00    -0.180 F 
ENDBRANCH  21  24
ENDBRANCH  17  18
ENDBRANCH   9  12
ENDBRANCH   1  10
BRANCH   4  28
ATOM     28  C   UNL     1      -6.682  17.081 -32.569  0.00  0.00    +0.250 C 
BRANCH  28  29
ATOM     29  C   UNL     1      -5.976  17.462 -33.872  0.00  0.00    +0.030 C 
BRANCH  29  30
ATOM     30  C   UNL     1      -4.479  17.637 -33.609  0.00  0.00    +0.040 C 
BRANCH  30  31
ATOM     31  C   UNL     1      -3.841  16.267 -33.370  0.00  0.00    +0.080 C 
BRANCH  31  32
ATOM     32  C   UNL     1      -2.348  16.336 -33.700  0.00  0.00    +0.020 C 
ATOM     33  C   UNL     1      -2.143  16.275 -35.194  0.00  0.00    -0.090 A 
ATOM     34  C   UNL     1      -2.458  15.317 -36.133  0.00  0.00    +0.040 A 
ATOM     35  C   UNL     1      -2.147  15.524 -37.466  0.00  0.00    +0.020 A 
ATOM     36  C   UNL     1      -1.521  16.693 -37.857  0.00  0.00    +0.020 A 
ATOM     37  C   UNL     1      -1.202  17.657 -36.925  0.00  0.00    +0.040 A 
ATOM     38  C   UNL     1      -1.511  17.455 -35.578  0.00  0.00    -0.050 A 
ATOM     39  C   UNL     1      -1.288  18.308 -34.386  0.00  0.00    -0.050 A 
ATOM     40  C   UNL     1      -0.703  19.568 -34.253  0.00  0.00    +0.040 A 
ATOM     41  C   UNL     1      -0.615  20.159 -33.009  0.00  0.00    +0.020 A 
ATOM     42  C   UNL     1      -1.104  19.508 -31.892  0.00  0.00    +0.020 A 
ATOM     43  C   UNL     1      -1.687  18.258 -32.016  0.00  0.00    +0.040 A 
ATOM     44  C   UNL     1      -1.778  17.660 -33.255  0.00  0.00    -0.090 A 
BRANCH  32  45
ATOM     45  C   UNL     1      -1.617  15.203 -33.028  0.00  0.00    +0.540 C 
ATOM     46  N   UNL     1      -0.298  15.027 -33.249  0.00  0.00    -0.720 N 
ATOM     47  H   UNL     1       0.179  15.629 -33.841  0.00  0.00    +0.410 HD
ATOM     48  O   UNL     1      -2.213  14.450 -32.288  0.00  0.00    -0.520 OA
BRANCH  46  49
ATOM     49  C   UNL     1       0.413  13.925 -32.596  0.00  0.00    +0.320 C 
BRANCH  49  50
ATOM     50  C   UNL     1       1.601  14.482 -31.809  0.00  0.00    +0.450 C 
ATOM     51  F   UNL     1       1.577  13.974 -30.506  0.00  0.00    -0.180 F 
ATOM     52  F   UNL     1       1.519  15.879 -31.767  0.00  0.00    -0.170 F 
ATOM     53  F   UNL     1       2.795  14.104 -32.434  0.00  0.00    -0.180 F 
ENDBRANCH  49  50
ENDBRANCH  46  49
ENDBRANCH  32  45
ENDBRANCH  31  32
ENDBRANCH  30  31
ENDBRANCH  29  30
ENDBRANCH  28  29
ENDBRANCH   4  28
TORSDOF 12
ENDMDL
MODEL 6
REMARK VINA RESULT:      -8.3      3.758     10.951
REMARK  Name = ZINC000027990463
REMARK  12 active torsions:
REMARK  status: ('A' for Active; 'I' for Inactive)
REMARK    1  A    between atoms: C2_2  and  C36_36
REMARK    2  A    between atoms: N3_3  and  C4_4
REMARK    3  A    between atoms: N7_7  and  C9_9
REMARK    4  A    between atoms: C9_9  and  C10_10
REMARK    5  A    between atoms: C10_10  and  C11_11
REMARK    6  A    between atoms: C11_11  and  C12_12
REMARK    7  A    between atoms: C12_12  and  C13_13
REMARK    8  A    between atoms: C13_13  and  C14_14
REMARK    9  A    between atoms: N16_16  and  C17_17
REMARK   10  A    between atoms: C17_17  and  C18_18
REMARK   11  A    between atoms: C41_41  and  C42_42
REMARK   12  A    between atoms: C45_45  and  C46_46
REMARK                            x       y       z     vdW  Elec       q    Type
REMARK                         _______ _______ _______ _____ _____    ______ ____
ROOT
ATOM      1  C   UNL     1      -0.092  16.734 -29.602  0.00  0.00    +0.250 C 
ATOM      2  C   UNL     1       1.093  16.918 -30.553  0.00  0.00    +0.050 C 
ATOM      3  C   UNL     1       1.110  15.773 -31.568  0.00  0.00    +0.260 C 
ATOM      4  N   UNL     1       1.241  14.492 -30.863  0.00  0.00    -0.380 N 
ATOM      5  C   UNL     1       0.072  14.275 -30.003  0.00  0.00    +0.260 C 
ATOM      6  H   UNL     1       2.076  14.504 -30.297  0.00  0.00    +0.420 HD
ATOM      7  C   UNL     1       0.016  15.363 -28.928  0.00  0.00    +0.050 C 
ENDROOT
BRANCH   1  10
ATOM      8  O   UNL     1      -1.615  18.958 -29.662  0.00  0.00    -0.510 OA
ATOM      9  C   UNL     1      -0.873  18.861 -28.704  0.00  0.00    +0.560 C 
ATOM     10  N   UNL     1      -0.070  17.784 -28.581  0.00  0.00    -0.730 N 
ATOM     11  H   UNL     1       0.522  17.705 -27.818  0.00  0.00    +0.410 HD
BRANCH   9  12
ATOM     12  C   UNL     1      -0.846  19.922 -27.679  0.00  0.00    -0.130 A 
ATOM     13  C   UNL     1       0.166  20.881 -27.687  0.00  0.00    +0.040 A 
ATOM     14  C   UNL     1       0.186  21.871 -26.726  0.00  0.00    +0.020 A 
ATOM     15  C   UNL     1      -0.794  21.919 -25.749  0.00  0.00    +0.060 A 
ATOM     16  C   UNL     1      -1.803  20.977 -25.725  0.00  0.00    +0.030 A 
ATOM     17  C   UNL     1      -1.844  19.974 -26.688  0.00  0.00    +0.000 A 
BRANCH  17  18
ATOM     18  C   UNL     1      -2.926  18.962 -26.666  0.00  0.00    -0.010 A 
ATOM     19  C   UNL     1      -2.698  17.706 -26.104  0.00  0.00    +0.020 A 
ATOM     20  C   UNL     1      -3.710  16.767 -26.087  0.00  0.00    +0.060 A 
ATOM     21  C   UNL     1      -4.948  17.071 -26.623  0.00  0.00    -0.180 A 
ATOM     22  C   UNL     1      -5.180  18.315 -27.181  0.00  0.00    +0.080 A 
ATOM     23  C   UNL     1      -4.178  19.264 -27.200  0.00  0.00    +0.040 A 
BRANCH  21  24
ATOM     24  C   UNL     1      -6.048  16.042 -26.599  0.00  0.00    +0.510 C 
ATOM     25  F   UNL     1      -6.660  16.042 -25.341  0.00  0.00    -0.180 F 
ATOM     26  F   UNL     1      -5.509  14.776 -26.855  0.00  0.00    -0.170 F 
ATOM     27  F   UNL     1      -6.998  16.351 -27.578  0.00  0.00    -0.180 F 
ENDBRANCH  21  24
ENDBRANCH  17  18
ENDBRANCH   9  12
ENDBRANCH   1  10
BRANCH   4  28
ATOM     28  C   UNL     1       1.333  13.403 -31.844  0.00  0.00    +0.250 C 
BRANCH  28  29
ATOM     29  C   UNL     1       2.253  13.826 -32.992  0.00  0.00    +0.030 C 
BRANCH  29  30
ATOM     30  C   UNL     1       1.406  14.301 -34.175  0.00  0.00    +0.040 C 
BRANCH  30  31
ATOM     31  C   UNL     1       0.633  13.116 -34.756  0.00  0.00    +0.080 C 
BRANCH  31  32
ATOM     32  C   UNL     1      -0.666  13.618 -35.391  0.00  0.00    +0.020 C 
ATOM     33  C   UNL     1      -1.719  13.821 -34.329  0.00  0.00    -0.090 A 
ATOM     34  C   UNL     1      -2.314  12.954 -33.438  0.00  0.00    +0.040 A 
ATOM     35  C   UNL     1      -3.273  13.419 -32.555  0.00  0.00    +0.020 A 
ATOM     36  C   UNL     1      -3.635  14.753 -32.564  0.00  0.00    +0.020 A 
ATOM     37  C   UNL     1      -3.044  15.628 -33.451  0.00  0.00    +0.040 A 
ATOM     38  C   UNL     1      -2.077  15.167 -34.346  0.00  0.00    -0.050 A 
ATOM     39  C   UNL     1      -1.293  15.874 -35.388  0.00  0.00    -0.050 A 
ATOM     40  C   UNL     1      -1.289  17.212 -35.786  0.00  0.00    +0.040 A 
ATOM     41  C   UNL     1      -0.449  17.626 -36.800  0.00  0.00    +0.020 A 
ATOM     42  C   UNL     1       0.388  16.721 -37.425  0.00  0.00    +0.020 A 
ATOM     43  C   UNL     1       0.389  15.392 -37.036  0.00  0.00    +0.040 A 
ATOM     44  C   UNL     1      -0.447  14.970 -36.025  0.00  0.00    -0.090 A 
BRANCH  32  45
ATOM     45  C   UNL     1      -1.152  12.633 -36.423  0.00  0.00    +0.540 C 
ATOM     46  N   UNL     1      -0.618  11.396 -36.478  0.00  0.00    -0.720 N 
ATOM     47  H   UNL     1       0.079  11.141 -35.853  0.00  0.00    +0.410 HD
ATOM     48  O   UNL     1      -2.024  12.951 -37.203  0.00  0.00    -0.520 OA
BRANCH  46  49
ATOM     49  C   UNL     1      -1.091  10.438 -37.480  0.00  0.00    +0.320 C 
BRANCH  49  50
ATOM     50  C   UNL     1      -0.250   9.163 -37.402  0.00  0.00    +0.450 C 
ATOM     51  F   UNL     1      -0.231   8.539 -38.654  0.00  0.00    -0.180 F 
ATOM     52  F   UNL     1      -0.807   8.294 -36.456  0.00  0.00    -0.170 F 
ATOM     53  F   UNL     1       1.057   9.487 -37.021  0.00  0.00    -0.180 F 
ENDBRANCH  49  50
ENDBRANCH  46  49
ENDBRANCH  32  45
ENDBRANCH  31  32
ENDBRANCH  30  31
ENDBRANCH  29  30
ENDBRANCH  28  29
ENDBRANCH   4  28
TORSDOF 12
ENDMDL
MODEL 7
REMARK VINA RESULT:      -8.2      5.856      8.729
REMARK  Name = ZINC000027990463
REMARK  12 active torsions:
REMARK  status: ('A' for Active; 'I' for Inactive)
REMARK    1  A    between atoms: C2_2  and  C36_36
REMARK    2  A    between atoms: N3_3  and  C4_4
REMARK    3  A    between atoms: N7_7  and  C9_9
REMARK    4  A    between atoms: C9_9  and  C10_10
REMARK    5  A    between atoms: C10_10  and  C11_11
REMARK    6  A    between atoms: C11_11  and  C12_12
REMARK    7  A    between atoms: C12_12  and  C13_13
REMARK    8  A    between atoms: C13_13  and  C14_14
REMARK    9  A    between atoms: N16_16  and  C17_17
REMARK   10  A    between atoms: C17_17  and  C18_18
REMARK   11  A    between atoms: C41_41  and  C42_42
REMARK   12  A    between atoms: C45_45  and  C46_46
REMARK                            x       y       z     vdW  Elec       q    Type
REMARK                         _______ _______ _______ _____ _____    ______ ____
ROOT
ATOM      1  C   UNL     1      -3.002  16.232 -33.816  0.00  0.00    +0.250 C 
ATOM      2  C   UNL     1      -4.328  16.097 -33.063  0.00  0.00    +0.050 C 
ATOM      3  C   UNL     1      -4.807  17.485 -32.630  0.00  0.00    +0.260 C 
ATOM      4  N   UNL     1      -3.805  18.099 -31.752  0.00  0.00    -0.380 N 
ATOM      5  C   UNL     1      -2.550  18.298 -32.489  0.00  0.00    +0.260 C 
ATOM      6  H   UNL     1      -3.637  17.496 -30.961  0.00  0.00    +0.420 HD
ATOM      7  C   UNL     1      -1.986  16.941 -32.916  0.00  0.00    +0.050 C 
ENDROOT
BRANCH   1  10
ATOM      8  O   UNL     1      -1.300  15.725 -35.845  0.00  0.00    -0.510 OA
ATOM      9  C   UNL     1      -1.649  14.754 -35.203  0.00  0.00    +0.560 C 
ATOM     10  N   UNL     1      -2.500  14.901 -34.167  0.00  0.00    -0.730 N 
ATOM     11  H   UNL     1      -2.779  14.127 -33.654  0.00  0.00    +0.410 HD
BRANCH   9  12
ATOM     12  C   UNL     1      -1.148  13.412 -35.560  0.00  0.00    -0.130 A 
ATOM     13  C   UNL     1      -1.463  12.851 -36.798  0.00  0.00    +0.040 A 
ATOM     14  C   UNL     1      -0.991  11.597 -37.126  0.00  0.00    +0.020 A 
ATOM     15  C   UNL     1      -0.206  10.887 -36.233  0.00  0.00    +0.060 A 
ATOM     16  C   UNL     1       0.115  11.427 -35.003  0.00  0.00    +0.030 A 
ATOM     17  C   UNL     1      -0.346  12.692 -34.656  0.00  0.00    +0.000 A 
BRANCH  17  18
ATOM     18  C   UNL     1      -0.004  13.275 -33.337  0.00  0.00    -0.010 A 
ATOM     19  C   UNL     1       0.944  14.294 -33.246  0.00  0.00    +0.020 A 
ATOM     20  C   UNL     1       1.259  14.833 -32.015  0.00  0.00    +0.060 A 
ATOM     21  C   UNL     1       0.635  14.364 -30.872  0.00  0.00    -0.180 A 
ATOM     22  C   UNL     1      -0.306  13.354 -30.956  0.00  0.00    +0.080 A 
ATOM     23  C   UNL     1      -0.633  12.811 -32.183  0.00  0.00    +0.040 A 
BRANCH  21  24
ATOM     24  C   UNL     1       0.982  14.957 -29.531  0.00  0.00    +0.510 C 
ATOM     25  F   UNL     1       0.072  14.503 -28.571  0.00  0.00    -0.180 F 
ATOM     26  F   UNL     1       0.920  16.353 -29.609  0.00  0.00    -0.170 F 
ATOM     27  F   UNL     1       2.275  14.567 -29.169  0.00  0.00    -0.180 F 
ENDBRANCH  21  24
ENDBRANCH  17  18
ENDBRANCH   9  12
ENDBRANCH   1  10
BRANCH   4  28
ATOM     28  C   UNL     1      -4.302  19.398 -31.278  0.00  0.00    +0.250 C 
BRANCH  28  29
ATOM     29  C   UNL     1      -4.895  19.236 -29.876  0.00  0.00    +0.030 C 
BRANCH  29  30
ATOM     30  C   UNL     1      -3.862  18.576 -28.960  0.00  0.00    +0.040 C 
BRANCH  30  31
ATOM     31  C   UNL     1      -3.219  19.640 -28.068  0.00  0.00    +0.080 C 
BRANCH  31  32
ATOM     32  C   UNL     1      -3.556  19.348 -26.603  0.00  0.00    +0.020 C 
ATOM     33  C   UNL     1      -5.039  19.508 -26.370  0.00  0.00    -0.090 A 
ATOM     34  C   UNL     1      -5.886  20.586 -26.506  0.00  0.00    +0.040 A 
ATOM     35  C   UNL     1      -7.233  20.450 -26.216  0.00  0.00    +0.020 A 
ATOM     36  C   UNL     1      -7.730  19.232 -25.791  0.00  0.00    +0.020 A 
ATOM     37  C   UNL     1      -6.890  18.147 -25.653  0.00  0.00    +0.040 A 
ATOM     38  C   UNL     1      -5.530  18.277 -25.942  0.00  0.00    -0.050 A 
ATOM     39  C   UNL     1      -4.420  17.295 -25.883  0.00  0.00    -0.050 A 
ATOM     40  C   UNL     1      -4.403  15.947 -25.521  0.00  0.00    +0.040 A 
ATOM     41  C   UNL     1      -3.218  15.240 -25.552  0.00  0.00    +0.020 A 
ATOM     42  C   UNL     1      -2.046  15.861 -25.939  0.00  0.00    +0.020 A 
ATOM     43  C   UNL     1      -2.055  17.198 -26.301  0.00  0.00    +0.040 A 
ATOM     44  C   UNL     1      -3.234  17.912 -26.272  0.00  0.00    -0.090 A 
BRANCH  32  45
ATOM     45  C   UNL     1      -2.785  20.276 -25.700  0.00  0.00    +0.540 C 
ATOM     46  N   UNL     1      -2.942  20.200 -24.363  0.00  0.00    -0.720 N 
ATOM     47  H   UNL     1      -3.552  19.548 -23.983  0.00  0.00    +0.410 HD
ATOM     48  O   UNL     1      -2.022  21.090 -26.175  0.00  0.00    -0.520 OA
BRANCH  46  49
ATOM     49  C   UNL     1      -2.192  21.101 -23.485  0.00  0.00    +0.320 C 
BRANCH  49  50
ATOM     50  C   UNL     1      -3.147  22.129 -22.875  0.00  0.00    +0.450 C 
ATOM     51  F   UNL     1      -3.181  21.967 -21.486  0.00  0.00    -0.180 F 
ATOM     52  F   UNL     1      -4.431  21.940 -23.399  0.00  0.00    -0.170 F 
ATOM     53  F   UNL     1      -2.704  23.420 -23.184  0.00  0.00    -0.180 F 
ENDBRANCH  49  50
ENDBRANCH  46  49
ENDBRANCH  32  45
ENDBRANCH  31  32
ENDBRANCH  30  31
ENDBRANCH  29  30
ENDBRANCH  28  29
ENDBRANCH   4  28
TORSDOF 12
ENDMDL
MODEL 8
REMARK VINA RESULT:      -8.1      5.870      9.078
REMARK  Name = ZINC000027990463
REMARK  12 active torsions:
REMARK  status: ('A' for Active; 'I' for Inactive)
REMARK    1  A    between atoms: C2_2  and  C36_36
REMARK    2  A    between atoms: N3_3  and  C4_4
REMARK    3  A    between atoms: N7_7  and  C9_9
REMARK    4  A    between atoms: C9_9  and  C10_10
REMARK    5  A    between atoms: C10_10  and  C11_11
REMARK    6  A    between atoms: C11_11  and  C12_12
REMARK    7  A    between atoms: C12_12  and  C13_13
REMARK    8  A    between atoms: C13_13  and  C14_14
REMARK    9  A    between atoms: N16_16  and  C17_17
REMARK   10  A    between atoms: C17_17  and  C18_18
REMARK   11  A    between atoms: C41_41  and  C42_42
REMARK   12  A    between atoms: C45_45  and  C46_46
REMARK                            x       y       z     vdW  Elec       q    Type
REMARK                         _______ _______ _______ _____ _____    ______ ____
ROOT
ATOM      1  C   UNL     1      -3.857  16.490 -33.093  0.00  0.00    +0.250 C 
ATOM      2  C   UNL     1      -5.370  16.312 -32.935  0.00  0.00    +0.050 C 
ATOM      3  C   UNL     1      -5.951  17.535 -32.223  0.00  0.00    +0.260 C 
ATOM      4  N   UNL     1      -5.333  17.674 -30.900  0.00  0.00    -0.380 N 
ATOM      5  C   UNL     1      -3.892  17.917 -31.045  0.00  0.00    +0.260 C 
ATOM      6  H   UNL     1      -5.478  16.828 -30.371  0.00  0.00    +0.420 HD
ATOM      7  C   UNL     1      -3.232  16.708 -31.712  0.00  0.00    +0.050 C 
ENDROOT
BRANCH   1  10
ATOM      8  O   UNL     1      -2.129  16.504 -35.163  0.00  0.00    -0.510 OA
ATOM      9  C   UNL     1      -2.426  15.403 -34.740  0.00  0.00    +0.560 C 
ATOM     10  N   UNL     1      -3.284  15.288 -33.706  0.00  0.00    -0.730 N 
ATOM     11  H   UNL     1      -3.521  14.411 -33.367  0.00  0.00    +0.410 HD
BRANCH   9  12
ATOM     12  C   UNL     1      -1.853  14.193 -35.360  0.00  0.00    -0.130 A 
ATOM     13  C   UNL     1      -2.265  13.793 -36.631  0.00  0.00    +0.040 A 
ATOM     14  C   UNL     1      -1.726  12.660 -37.206  0.00  0.00    +0.020 A 
ATOM     15  C   UNL     1      -0.775  11.915 -36.528  0.00  0.00    +0.060 A 
ATOM     16  C   UNL     1      -0.355  12.297 -35.270  0.00  0.00    +0.030 A 
ATOM     17  C   UNL     1      -0.883  13.438 -34.675  0.00  0.00    +0.000 A 
BRANCH  17  18
ATOM     18  C   UNL     1      -0.434  13.851 -33.324  0.00  0.00    -0.010 A 
ATOM     19  C   UNL     1      -0.847  13.136 -32.200  0.00  0.00    +0.020 A 
ATOM     20  C   UNL     1      -0.426  13.525 -30.945  0.00  0.00    +0.060 A 
ATOM     21  C   UNL     1       0.405  14.622 -30.801  0.00  0.00    -0.180 A 
ATOM     22  C   UNL     1       0.819  15.335 -31.912  0.00  0.00    +0.080 A 
ATOM     23  C   UNL     1       0.408  14.951 -33.173  0.00  0.00    +0.040 A 
BRANCH  21  24
ATOM     24  C   UNL     1       0.862  15.041 -29.427  0.00  0.00    +0.510 C 
ATOM     25  F   UNL     1       2.192  14.649 -29.238  0.00  0.00    -0.180 F 
ATOM     26  F   UNL     1       0.055  14.431 -28.461  0.00  0.00    -0.170 F 
ATOM     27  F   UNL     1       0.765  16.431 -29.307  0.00  0.00    -0.180 F 
ENDBRANCH  21  24
ENDBRANCH  17  18
ENDBRANCH   9  12
ENDBRANCH   1  10
BRANCH   4  28
ATOM     28  C   UNL     1      -5.948  18.805 -30.191  0.00  0.00    +0.250 C 
BRANCH  28  29
ATOM     29  C   UNL     1      -5.035  20.029 -30.294  0.00  0.00    +0.030 C 
BRANCH  29  30
ATOM     30  C   UNL     1      -4.729  20.557 -28.891  0.00  0.00    +0.040 C 
BRANCH  30  31
ATOM     31  C   UNL     1      -5.886  20.206 -27.953  0.00  0.00    +0.080 C 
BRANCH  31  32
ATOM     32  C   UNL     1      -5.348  19.429 -26.749  0.00  0.00    +0.020 C 
ATOM     33  C   UNL     1      -6.021  18.081 -26.659  0.00  0.00    -0.090 A 
ATOM     34  C   UNL     1      -7.339  17.713 -26.495  0.00  0.00    +0.040 A 
ATOM     35  C   UNL     1      -7.684  16.374 -26.444  0.00  0.00    +0.020 A 
ATOM     36  C   UNL     1      -6.706  15.402 -26.557  0.00  0.00    +0.020 A 
ATOM     37  C   UNL     1      -5.385  15.760 -26.722  0.00  0.00    +0.040 A 
ATOM     38  C   UNL     1      -5.029  17.110 -26.773  0.00  0.00    -0.050 A 
ATOM     39  C   UNL     1      -3.710  17.767 -26.939  0.00  0.00    -0.050 A 
ATOM     40  C   UNL     1      -2.429  17.233 -27.095  0.00  0.00    +0.040 A 
ATOM     41  C   UNL     1      -1.344  18.074 -27.235  0.00  0.00    +0.020 A 
ATOM     42  C   UNL     1      -1.519  19.445 -27.221  0.00  0.00    +0.020 A 
ATOM     43  C   UNL     1      -2.787  19.983 -27.069  0.00  0.00    +0.040 A 
ATOM     44  C   UNL     1      -3.876  19.149 -26.927  0.00  0.00    -0.090 A 
BRANCH  32  45
ATOM     45  C   UNL     1      -5.579  20.211 -25.482  0.00  0.00    +0.540 C 
ATOM     46  N   UNL     1      -5.387  19.624 -24.283  0.00  0.00    -0.720 N 
ATOM     47  H   UNL     1      -5.101  18.699 -24.237  0.00  0.00    +0.410 HD
ATOM     48  O   UNL     1      -5.936  21.368 -25.540  0.00  0.00    -0.520 OA
BRANCH  46  49
ATOM     49  C   UNL     1      -5.611  20.385 -23.051  0.00  0.00    +0.320 C 
BRANCH  49  50
ATOM     50  C   UNL     1      -6.865  19.860 -22.350  0.00  0.00    +0.450 C 
ATOM     51  F   UNL     1      -7.944  19.888 -23.240  0.00  0.00    -0.180 F 
ATOM     52  F   UNL     1      -7.152  20.666 -21.243  0.00  0.00    -0.170 F 
ATOM     53  F   UNL     1      -6.646  18.545 -21.923  0.00  0.00    -0.180 F 
ENDBRANCH  49  50
ENDBRANCH  46  49
ENDBRANCH  32  45
ENDBRANCH  31  32
ENDBRANCH  30  31
ENDBRANCH  29  30
ENDBRANCH  28  29
ENDBRANCH   4  28
TORSDOF 12
ENDMDL
MODEL 9
REMARK VINA RESULT:      -7.9      3.089      4.444
REMARK  Name = ZINC000027990463
REMARK  12 active torsions:
REMARK  status: ('A' for Active; 'I' for Inactive)
REMARK    1  A    between atoms: C2_2  and  C36_36
REMARK    2  A    between atoms: N3_3  and  C4_4
REMARK    3  A    between atoms: N7_7  and  C9_9
REMARK    4  A    between atoms: C9_9  and  C10_10
REMARK    5  A    between atoms: C10_10  and  C11_11
REMARK    6  A    between atoms: C11_11  and  C12_12
REMARK    7  A    between atoms: C12_12  and  C13_13
REMARK    8  A    between atoms: C13_13  and  C14_14
REMARK    9  A    between atoms: N16_16  and  C17_17
REMARK   10  A    between atoms: C17_17  and  C18_18
REMARK   11  A    between atoms: C41_41  and  C42_42
REMARK   12  A    between atoms: C45_45  and  C46_46
REMARK                            x       y       z     vdW  Elec       q    Type
REMARK                         _______ _______ _______ _____ _____    ______ ____
ROOT
ATOM      1  C   UNL     1      -1.430  13.094 -36.406  0.00  0.00    +0.250 C 
ATOM      2  C   UNL     1      -2.221  13.934 -35.400  0.00  0.00    +0.050 C 
ATOM      3  C   UNL     1      -1.257  14.834 -34.623  0.00  0.00    +0.260 C 
ATOM      4  N   UNL     1      -0.278  14.006 -33.909  0.00  0.00    -0.380 N 
ATOM      5  C   UNL     1       0.534  13.250 -34.872  0.00  0.00    +0.260 C 
ATOM      6  H   UNL     1      -0.762  13.362 -33.302  0.00  0.00    +0.420 HD
ATOM      7  C   UNL     1      -0.363  12.290 -35.657  0.00  0.00    +0.050 C 
ENDROOT
BRANCH   1  10
ATOM      8  O   UNL     1      -2.124  13.299 -39.004  0.00  0.00    -0.510 OA
ATOM      9  C   UNL     1      -2.621  12.366 -38.404  0.00  0.00    +0.560 C 
ATOM     10  N   UNL     1      -2.337  12.176 -37.099  0.00  0.00    -0.730 N 
ATOM     11  H   UNL     1      -2.733  11.432 -36.620  0.00  0.00    +0.410 HD
BRANCH   9  12
ATOM     12  C   UNL     1      -3.540  11.444 -39.100  0.00  0.00    -0.130 A 
ATOM     13  C   UNL     1      -4.799  11.884 -39.509  0.00  0.00    +0.040 A 
ATOM     14  C   UNL     1      -5.654  11.018 -40.159  0.00  0.00    +0.020 A 
ATOM     15  C   UNL     1      -5.270   9.711 -40.410  0.00  0.00    +0.060 A 
ATOM     16  C   UNL     1      -4.028   9.259 -40.012  0.00  0.00    +0.030 A 
ATOM     17  C   UNL     1      -3.150  10.118 -39.360  0.00  0.00    +0.000 A 
BRANCH  17  18
ATOM     18  C   UNL     1      -1.815   9.636 -38.931  0.00  0.00    -0.010 A 
ATOM     19  C   UNL     1      -1.690   8.845 -37.790  0.00  0.00    +0.020 A 
ATOM     20  C   UNL     1      -0.444   8.399 -37.396  0.00  0.00    +0.060 A 
ATOM     21  C   UNL     1       0.678   8.735 -38.132  0.00  0.00    -0.180 A 
ATOM     22  C   UNL     1       0.560   9.520 -39.265  0.00  0.00    +0.080 A 
ATOM     23  C   UNL     1      -0.681   9.966 -39.672  0.00  0.00    +0.040 A 
BRANCH  21  24
ATOM     24  C   UNL     1       2.035   8.245 -37.697  0.00  0.00    +0.510 C 
ATOM     25  F   UNL     1       2.474   8.998 -36.603  0.00  0.00    -0.180 F 
ATOM     26  F   UNL     1       2.941   8.384 -38.753  0.00  0.00    -0.170 F 
ATOM     27  F   UNL     1       1.948   6.898 -37.330  0.00  0.00    -0.180 F 
ENDBRANCH  21  24
ENDBRANCH  17  18
ENDBRANCH   9  12
ENDBRANCH   1  10
BRANCH   4  28
ATOM     28  C   UNL     1       0.598  14.869 -33.106  0.00  0.00    +0.250 C 
BRANCH  28  29
ATOM     29  C   UNL     1       1.005  14.134 -31.827  0.00  0.00    +0.030 C 
BRANCH  29  30
ATOM     30  C   UNL     1       1.473  15.149 -30.782  0.00  0.00    +0.040 C 
BRANCH  30  31
ATOM     31  C   UNL     1       0.367  15.361 -29.746  0.00  0.00    +0.080 C 
BRANCH  31  32
ATOM     32  C   UNL     1       0.013  16.848 -29.676  0.00  0.00    +0.020 C 
ATOM     33  C   UNL     1       1.270  17.684 -29.717  0.00  0.00    -0.090 A 
ATOM     34  C   UNL     1       2.364  17.751 -28.880  0.00  0.00    +0.040 A 
ATOM     35  C   UNL     1       3.397  18.628 -29.161  0.00  0.00    +0.020 A 
ATOM     36  C   UNL     1       3.335  19.436 -30.282  0.00  0.00    +0.020 A 
ATOM     37  C   UNL     1       2.245  19.374 -31.125  0.00  0.00    +0.040 A 
ATOM     38  C   UNL     1       1.198  18.493 -30.847  0.00  0.00    -0.050 A 
ATOM     39  C   UNL     1      -0.070  18.225 -31.568  0.00  0.00    -0.050 A 
ATOM     40  C   UNL     1      -0.595  18.773 -32.740  0.00  0.00    +0.040 A 
ATOM     41  C   UNL     1      -1.819  18.343 -33.212  0.00  0.00    +0.020 A 
ATOM     42  C   UNL     1      -2.528  17.373 -32.530  0.00  0.00    +0.020 A 
ATOM     43  C   UNL     1      -2.014  16.825 -31.367  0.00  0.00    +0.040 A 
ATOM     44  C   UNL     1      -0.792  17.249 -30.887  0.00  0.00    -0.090 A 
BRANCH  32  45
ATOM     45  C   UNL     1      -0.762  17.137 -28.417  0.00  0.00    +0.540 C 
ATOM     46  N   UNL     1      -1.133  18.401 -28.129  0.00  0.00    -0.720 N 
ATOM     47  H   UNL     1      -0.900  19.124 -28.732  0.00  0.00    +0.410 HD
ATOM     48  O   UNL     1      -1.054  16.233 -27.663  0.00  0.00    -0.520 OA
BRANCH  46  49
ATOM     49  C   UNL     1      -1.888  18.682 -26.905  0.00  0.00    +0.320 C 
BRANCH  49  50
ATOM     50  C   UNL     1      -3.382  18.725 -27.226  0.00  0.00    +0.450 C 
ATOM     51  F   UNL     1      -3.980  17.524 -26.831  0.00  0.00    -0.180 F 
ATOM     52  F   UNL     1      -3.558  18.902 -28.604  0.00  0.00    -0.170 F 
ATOM     53  F   UNL     1      -3.977  19.791 -26.541  0.00  0.00    -0.180 F 
ENDBRANCH  49  50
ENDBRANCH  46  49
ENDBRANCH  32  45
ENDBRANCH  31  32
ENDBRANCH  30  31
ENDBRANCH  29  30
ENDBRANCH  28  29
ENDBRANCH   4  28
TORSDOF 12
ENDMDL
