@<TRIPOS>MOLECULE
ZINC000027990463
88    93    1     0     0
SMALL
USER_CHARGES
@<TRIPOS>ATOM
1      O1     -0.2564   -0.0311   -0.0106 O.2      1 ZINC000027990463   -0.5100
2      C2     -0.2245    1.1839    0.0203 C.2      1 ZINC000027990463    0.5600
3      N3      0.9600    1.8265    0.0428 N.am     1 ZINC000027990463   -0.7300
4      C4      2.2091    1.0610    0.0299 C.3      1 ZINC000027990463    0.1400
5      C5      2.5926    0.7311   -1.4155 C.3      1 ZINC000027990463   -0.1600
6      C6      3.9375    0.0013   -1.4267 C.3      1 ZINC000027990463    0.0000
7      N7      4.9683    0.8583   -0.8288 N.4      1 ZINC000027990463   -0.3800
8      H8      5.0106    1.7323   -1.3312 H        1 ZINC000027990463    0.4200
9      C9      6.2711    0.1845   -0.9107 C.3      1 ZINC000027990463   -0.0100
10     C10     7.3238    1.0190   -0.1783 C.3      1 ZINC000027990463   -0.1500
11     C11     8.6807    0.3173   -0.2637 C.3      1 ZINC000027990463   -0.1200
12     C12     9.7334    1.1518    0.4687 C.3      1 ZINC000027990463   -0.0800
13     C13    11.1118    0.5160    0.2774 C.3      1 ZINC000027990463    0.0200
14     C14    12.1354    1.2351    1.1177 C.2      1 ZINC000027990463    0.5400
15     O15    11.8009    2.1728    1.8103 O.2      1 ZINC000027990463   -0.5200
16     N16    13.4227    0.8361    1.0997 N.am     1 ZINC000027990463   -0.7200
17     C17    14.4178    1.5351    1.9166 C.3      1 ZINC000027990463    0.0800
18     C18    15.7893    0.8880    1.7143 C.3      1 ZINC000027990463    0.4500
19     F19    16.1505    0.9728    0.3654 F        1 ZINC000027990463   -0.1800
20     F20    16.7396    1.5555    2.4944 F        1 ZINC000027990463   -0.1700
21     F21    15.7319   -0.4561    2.0980 F        1 ZINC000027990463   -0.1800
22     C22    11.0660   -0.9457    0.6498 C.ar     1 ZINC000027990463   -0.0900
23     C23    10.7678   -1.5910    1.8309 C.ar     1 ZINC000027990463   -0.0900
24     C24    10.8046   -2.9730    1.8937 C.ar     1 ZINC000027990463   -0.1100
25     C25    11.1400   -3.7095    0.7722 C.ar     1 ZINC000027990463   -0.1100
26     C26    11.4394   -3.0720   -0.4141 C.ar     1 ZINC000027990463   -0.0900
27     C27    11.4047   -1.6784   -0.4847 C.ar     1 ZINC000027990463   -0.0500
28     C28    11.6756   -0.7498   -1.6100 C.ar     1 ZINC000027990463   -0.0500
29     C29    12.0452   -0.9927   -2.9338 C.ar     1 ZINC000027990463   -0.0900
30     C30    12.2394    0.0635   -3.7999 C.ar     1 ZINC000027990463   -0.1100
31     C31    12.0697    1.3642   -3.3617 C.ar     1 ZINC000027990463   -0.1100
32     C32    11.7033    1.6126   -2.0505 C.ar     1 ZINC000027990463   -0.0900
33     C33    11.5083    0.5633   -1.1779 C.ar     1 ZINC000027990463   -0.0900
34     C34     4.6437    1.1199    0.5786 C.3      1 ZINC000027990463   -0.0100
35     C35     3.3260    1.8927    0.6669 C.3      1 ZINC000027990463   -0.1600
36     C36    -1.4831    1.9555    0.0272 C.ar     1 ZINC000027990463   -0.1300
37     C37    -1.5679    3.1536    0.7361 C.ar     1 ZINC000027990463   -0.0900
38     C38    -2.7465    3.8709    0.7387 C.ar     1 ZINC000027990463   -0.1200
39     C39    -3.8496    3.4090    0.0405 C.ar     1 ZINC000027990463   -0.0800
40     C40    -3.7842    2.2248   -0.6665 C.ar     1 ZINC000027990463   -0.1100
41     C41    -2.6025    1.4900   -0.6860 C.ar     1 ZINC000027990463    0.0000
42     C42    -2.5276    0.2187   -1.4439 C.ar     1 ZINC000027990463   -0.0100
43     C43    -1.5544    0.0465   -2.4274 C.ar     1 ZINC000027990463   -0.1000
44     C44    -1.4893   -1.1396   -3.1296 C.ar     1 ZINC000027990463   -0.0700
45     C45    -2.3872   -2.1567   -2.8594 C.ar     1 ZINC000027990463   -0.1800
46     C46    -2.3104   -3.4499   -3.6294 C.3      1 ZINC000027990463    0.5100
47     F47    -1.4602   -4.3393   -2.9636 F        1 ZINC000027990463   -0.1800
48     F48    -3.5882   -4.0109   -3.7272 F        1 ZINC000027990463   -0.1700
49     F49    -1.8114   -3.1998   -4.9123 F        1 ZINC000027990463   -0.1800
50     C50    -3.3550   -1.9917   -1.8847 C.ar     1 ZINC000027990463   -0.0600
51     C51    -3.4265   -0.8120   -1.1724 C.ar     1 ZINC000027990463   -0.1000
52     H52     0.9855    2.7959    0.0675 H        1 ZINC000027990463    0.4100
53     H53     2.0762    0.1372    0.5929 H        1 ZINC000027990463    0.1100
54     H54     1.8283    0.0925   -1.8582 H        1 ZINC000027990463    0.1200
55     H55     2.6744    1.6538   -1.9900 H        1 ZINC000027990463    0.0900
56     H56     3.8545   -0.9213   -0.8522 H        1 ZINC000027990463    0.1300
57     H57     4.2135   -0.2352   -2.4543 H        1 ZINC000027990463    0.1300
58     H58     6.2010   -0.7996   -0.4475 H        1 ZINC000027990463    0.1300
59     H59     6.5580    0.0743   -1.9565 H        1 ZINC000027990463    0.1300
60     H60     7.3940    2.0032   -0.6415 H        1 ZINC000027990463    0.0900
61     H61     7.0369    1.1293    0.8675 H        1 ZINC000027990463    0.0900
62     H62     8.6106   -0.6669    0.1996 H        1 ZINC000027990463    0.0800
63     H63     8.9676    0.2071   -1.3094 H        1 ZINC000027990463    0.0800
64     H64     9.7408    2.1639    0.0640 H        1 ZINC000027990463    0.0800
65     H65     9.4940    1.1872    1.5315 H        1 ZINC000027990463    0.0800
66     H66    13.6902    0.0861    0.5458 H        1 ZINC000027990463    0.4100
67     H67    14.4625    2.5824    1.6176 H        1 ZINC000027990463    0.1200
68     H68    14.1363    1.4691    2.9675 H        1 ZINC000027990463    0.1200
69     H69    10.5057   -1.0177    2.7079 H        1 ZINC000027990463    0.1300
70     H70    10.5714   -3.4771    2.8200 H        1 ZINC000027990463    0.1300
71     H71    11.1679   -4.7878    0.8254 H        1 ZINC000027990463    0.1300
72     H72    11.7007   -3.6509   -1.2876 H        1 ZINC000027990463    0.1300
73     H73    12.1795   -2.0069   -3.2798 H        1 ZINC000027990463    0.1300
74     H74    12.5254   -0.1261   -4.8239 H        1 ZINC000027990463    0.1300
75     H75    12.2237    2.1874   -4.0437 H        1 ZINC000027990463    0.1300
76     H76    11.5713    2.6290   -1.7103 H        1 ZINC000027990463    0.1300
77     H77     4.5457    0.1735    1.1104 H        1 ZINC000027990463    0.1300
78     H78     5.4411    1.7092    1.0314 H        1 ZINC000027990463    0.1400
79     H79     3.4230    2.8395    0.1357 H        1 ZINC000027990463    0.0900
80     H80     3.0859    2.0844    1.7127 H        1 ZINC000027990463    0.1200
81     H81    -0.7116    3.5195    1.2831 H        1 ZINC000027990463    0.1300
82     H82    -2.8093    4.7981    1.2889 H        1 ZINC000027990463    0.1400
83     H83    -4.7672    3.9785    0.0494 H        1 ZINC000027990463    0.1400
84     H84    -4.6489    1.8710   -1.2082 H        1 ZINC000027990463    0.1400
85     H85    -0.8531    0.8400   -2.6395 H        1 ZINC000027990463    0.1200
86     H86    -0.7361   -1.2740   -3.8919 H        1 ZINC000027990463    0.1300
87     H87    -4.0535   -2.7891   -1.6784 H        1 ZINC000027990463    0.1400
88     H88    -4.1823   -0.6844   -0.4115 H        1 ZINC000027990463    0.1400
@<TRIPOS>BOND
1     1     2     2
2     2     3     am
3     2     36    1
4     3     4     1
5     3     52    1
6     4     35    1
7     4     5     1
8     4     53    1
9     5     6     1
10    5     54    1
11    5     55    1
12    6     7     1
13    6     56    1
14    6     57    1
15    7     8     1
16    7     9     1
17    7     34    1
18    9     10    1
19    9     58    1
20    9     59    1
21    10    11    1
22    10    60    1
23    10    61    1
24    11    12    1
25    11    62    1
26    11    63    1
27    12    13    1
28    12    64    1
29    12    65    1
30    13    33    1
31    13    14    1
32    13    22    1
33    14    15    2
34    14    16    am
35    16    17    1
36    16    66    1
37    17    18    1
38    17    67    1
39    17    68    1
40    18    19    1
41    18    20    1
42    18    21    1
43    22    27    ar
44    22    23    ar
45    23    24    ar
46    23    69    1
47    24    25    ar
48    24    70    1
49    25    26    ar
50    25    71    1
51    26    27    ar
52    26    72    1
53    27    28    1
54    28    33    ar
55    28    29    ar
56    29    30    ar
57    29    73    1
58    30    31    ar
59    30    74    1
60    31    32    ar
61    31    75    1
62    32    33    ar
63    32    76    1
64    34    35    1
65    34    77    1
66    34    78    1
67    35    79    1
68    35    80    1
69    36    41    ar
70    36    37    ar
71    37    38    ar
72    37    81    1
73    38    39    ar
74    38    82    1
75    39    40    ar
76    39    83    1
77    40    41    ar
78    40    84    1
79    41    42    1
80    42    51    ar
81    42    43    ar
82    43    44    ar
83    43    85    1
84    44    45    ar
85    44    86    1
86    45    46    1
87    45    50    ar
88    46    47    1
89    46    48    1
90    46    49    1
91    50    51    ar
92    50    87    1
93    51    88    1
@<TRIPOS>SUBSTRUCTURE
1   ZINC000027990463 1     RESIDUE    1   A     ZIN   1
