REMARK  Name = ZINC000003927822
REMARK  4 active torsions:
REMARK  status: ('A' for Active; 'I' for Inactive)
REMARK    1  A    between atoms: N_16  and  C_17
REMARK    2  A    between atoms: C_17  and  C_18
REMARK    3  A    between atoms: C_24  and  C_26
REMARK    4  A    between atoms: C_26  and  N_27
REMARK                            x       y       z     vdW  Elec       q    Type
REMARK                         _______ _______ _______ _____ _____    ______ ____
ROOT
ATOM      1  C   UNL     1       2.916   1.112   1.757  0.00  0.00    +0.015 C 
ATOM      2  C   UNL     1       3.037   2.395   2.581  0.00  0.00    +0.005 C 
ATOM      3  C   UNL     1       3.674   2.074   3.934  0.00  0.00    +0.000 C 
ATOM      4  C   UNL     1       5.065   1.476   3.714  0.00  0.00    +0.000 C 
ATOM      5  C   UNL     1       4.944   0.192   2.890  0.00  0.00    +0.009 C 
ATOM      6  C   UNL     1       4.306   0.514   1.536  0.00  0.00    +0.039 C 
ENDROOT
BRANCH   1   7
ATOM      7  C   UNL     1       2.279   1.434   0.403  0.00  0.00    +0.120 C 
BRANCH   7  19
ATOM      8  O   UNL     1      -0.070  -0.144   0.427  0.00  0.00    -0.275 OA
ATOM      9  C   UNL     1      -0.139   1.055   0.593  0.00  0.00    +0.226 C 
ATOM     10  C   UNL     1      -1.415   1.833   0.822  0.00  0.00    +0.091 C 
ATOM     11  C   UNL     1      -2.245   1.816  -0.496  0.00  0.00    +0.002 C 
ATOM     12  C   UNL     1      -3.538   2.618  -0.156  0.00  0.00    +0.004 C 
ATOM     13  C   UNL     1      -3.065   4.082  -0.016  0.00  0.00    +0.004 C 
ATOM     14  C   UNL     1      -1.530   4.028  -0.286  0.00  0.00    +0.002 C 
ATOM     15  C   UNL     1      -1.450   2.860  -1.357  0.00  0.00    +0.008 C 
ATOM     16  C   UNL     1      -0.918   3.300   0.971  0.00  0.00    +0.091 C 
ATOM     17  C   UNL     1       0.582   3.221   0.794  0.00  0.00    +0.226 C 
ATOM     18  O   UNL     1       1.342   4.164   0.836  0.00  0.00    -0.275 OA
ATOM     19  N   UNL     1       0.903   1.894   0.608  0.00  0.00    -0.241 N 
ENDBRANCH   7  19
ENDBRANCH   1   7
BRANCH   6  20
ATOM     20  C   UNL     1       4.185  -0.769   0.712  0.00  0.00    +0.135 C 
BRANCH  20  21
ATOM     21  N   UNL     1       5.524  -1.323   0.468  0.00  0.00    +0.238 N 
ATOM     22  C   UNL     1       6.353  -0.315  -0.204  0.00  0.00    +0.150 C 
ATOM     23  C   UNL     1       7.781  -0.849  -0.356  0.00  0.00    +0.157 C 
ATOM     24  N   UNL     1       7.723  -2.146  -1.048  0.00  0.00    -0.304 N 
ATOM     25  C   UNL     1       6.791  -3.163  -0.536  0.00  0.00    +0.157 C 
ATOM     26  C   UNL     1       8.528  -2.405  -2.158  0.00  0.00    +0.138 A 
ATOM     27  N   UNL     1       8.164  -2.048  -3.345  0.00  0.00    -0.194 NA
ATOM     28  S   UNL     1       9.361  -2.510  -4.451  0.00  0.00    +0.014 S 
ATOM     29  C   UNL     1      10.446  -3.239  -3.264  0.00  0.00    +0.041 A 
ATOM     30  C   UNL     1      11.682  -3.864  -3.358  0.00  0.00    +0.017 A 
ATOM     31  C   UNL     1      12.292  -4.341  -2.220  0.00  0.00    +0.001 A 
ATOM     32  C   UNL     1      11.671  -4.195  -0.985  0.00  0.00    +0.001 A 
ATOM     33  C   UNL     1      10.459  -3.585  -0.875  0.00  0.00    +0.012 A 
ATOM     34  C   UNL     1       9.809  -3.079  -2.019  0.00  0.00    +0.031 A 
ATOM     35  C   UNL     1       5.410  -2.519  -0.377  0.00  0.00    +0.150 C 
ATOM     36  H   UNL     1       5.948  -1.574   1.348  0.00  0.00    +0.203 HD
ENDBRANCH  20  21
ENDBRANCH   6  20
TORSDOF 4
