MODEL 1
REMARK VINA RESULT:      -8.3      0.000      0.000
REMARK  Name = ZINC000003927822
REMARK  4 active torsions:
REMARK  status: ('A' for Active; 'I' for Inactive)
REMARK    1  A    between atoms: N_16  and  C_17
REMARK    2  A    between atoms: C_17  and  C_18
REMARK    3  A    between atoms: C_24  and  C_26
REMARK    4  A    between atoms: C_26  and  N_27
REMARK                            x       y       z     vdW  Elec       q    Type
REMARK                         _______ _______ _______ _____ _____    ______ ____
ROOT
ATOM      1  C   UNL     1       1.379  18.132 -29.526  0.00  0.00    +0.015 C 
ATOM      2  C   UNL     1       2.822  17.839 -29.114  0.00  0.00    +0.005 C 
ATOM      3  C   UNL     1       3.673  19.095 -29.309  0.00  0.00    +0.000 C 
ATOM      4  C   UNL     1       3.116  20.228 -28.445  0.00  0.00    +0.000 C 
ATOM      5  C   UNL     1       1.672  20.522 -28.858  0.00  0.00    +0.009 C 
ATOM      6  C   UNL     1       0.821  19.264 -28.662  0.00  0.00    +0.039 C 
ENDROOT
BRANCH   1   7
ATOM      7  C   UNL     1       0.528  16.875 -29.330  0.00  0.00    +0.120 C 
BRANCH   7  19
ATOM      8  O   UNL     1      -0.406  16.997 -31.999  0.00  0.00    -0.275 OA
ATOM      9  C   UNL     1       0.301  16.080 -31.642  0.00  0.00    +0.226 C 
ATOM     10  C   UNL     1       0.758  14.936 -32.519  0.00  0.00    +0.091 C 
ATOM     11  C   UNL     1      -0.478  14.050 -32.856  0.00  0.00    +0.002 C 
ATOM     12  C   UNL     1       0.085  12.921 -33.771  0.00  0.00    +0.004 C 
ATOM     13  C   UNL     1       0.943  12.046 -32.831  0.00  0.00    +0.004 C 
ATOM     14  C   UNL     1       0.816  12.727 -31.434  0.00  0.00    +0.002 C 
ATOM     15  C   UNL     1      -0.668  13.283 -31.499  0.00  0.00    +0.008 C 
ATOM     16  C   UNL     1       1.627  14.073 -31.559  0.00  0.00    +0.091 C 
ATOM     17  C   UNL     1       1.567  14.792 -30.230  0.00  0.00    +0.226 C 
ATOM     18  O   UNL     1       2.117  14.430 -29.212  0.00  0.00    -0.275 OA
ATOM     19  N   UNL     1       0.804  15.925 -30.411  0.00  0.00    -0.241 N 
ENDBRANCH   7  19
ENDBRANCH   1   7
BRANCH   6  20
ATOM     20  C   UNL     1      -0.623  19.557 -29.075  0.00  0.00    +0.135 C 
BRANCH  20  21
ATOM     21  N   UNL     1      -1.429  19.830 -27.877  0.00  0.00    +0.238 N 
ATOM     22  C   UNL     1      -1.852  18.560 -27.275  0.00  0.00    +0.150 C 
ATOM     23  C   UNL     1      -2.595  18.840 -25.964  0.00  0.00    +0.157 C 
ATOM     24  N   UNL     1      -3.695  19.776 -26.242  0.00  0.00    -0.304 N 
ATOM     25  C   UNL     1      -3.387  21.005 -26.990  0.00  0.00    +0.157 C 
ATOM     26  C   UNL     1      -4.994  19.507 -25.809  0.00  0.00    +0.138 A 
ATOM     27  N   UNL     1      -5.791  18.768 -26.507  0.00  0.00    -0.194 NA
ATOM     28  S   UNL     1      -7.276  18.645 -25.701  0.00  0.00    +0.014 S 
ATOM     29  C   UNL     1      -6.827  19.649 -24.320  0.00  0.00    +0.041 A 
ATOM     30  C   UNL     1      -7.501  20.055 -23.176  0.00  0.00    +0.017 A 
ATOM     31  C   UNL     1      -6.863  20.859 -22.259  0.00  0.00    +0.001 A 
ATOM     32  C   UNL     1      -5.550  21.260 -22.481  0.00  0.00    +0.001 A 
ATOM     33  C   UNL     1      -4.875  20.871 -23.597  0.00  0.00    +0.012 A 
ATOM     34  C   UNL     1      -5.496  20.042 -24.553  0.00  0.00    +0.031 A 
ATOM     35  C   UNL     1      -2.608  20.621 -28.253  0.00  0.00    +0.150 C 
ATOM     36  H   UNL     1      -0.875  20.349 -27.212  0.00  0.00    +0.203 HD
ENDBRANCH  20  21
ENDBRANCH   6  20
TORSDOF 4
ENDMDL
MODEL 2
REMARK VINA RESULT:      -8.2      7.490     13.398
REMARK  Name = ZINC000003927822
REMARK  4 active torsions:
REMARK  status: ('A' for Active; 'I' for Inactive)
REMARK    1  A    between atoms: N_16  and  C_17
REMARK    2  A    between atoms: C_17  and  C_18
REMARK    3  A    between atoms: C_24  and  C_26
REMARK    4  A    between atoms: C_26  and  N_27
REMARK                            x       y       z     vdW  Elec       q    Type
REMARK                         _______ _______ _______ _____ _____    ______ ____
ROOT
ATOM      1  C   UNL     1      -1.710  14.655 -35.369  0.00  0.00    +0.015 C 
ATOM      2  C   UNL     1      -2.630  15.636 -34.641  0.00  0.00    +0.005 C 
ATOM      3  C   UNL     1      -2.602  16.988 -35.356  0.00  0.00    +0.000 C 
ATOM      4  C   UNL     1      -3.082  16.813 -36.798  0.00  0.00    +0.000 C 
ATOM      5  C   UNL     1      -2.161  15.831 -37.526  0.00  0.00    +0.009 C 
ATOM      6  C   UNL     1      -2.190  14.478 -36.810  0.00  0.00    +0.039 C 
ENDROOT
BRANCH   1   7
ATOM      7  C   UNL     1      -1.740  13.302 -34.653  0.00  0.00    +0.120 C 
BRANCH   7  19
ATOM      8  O   UNL     1      -2.619  13.622 -31.982  0.00  0.00    -0.275 OA
ATOM      9  C   UNL     1      -1.435  13.530 -32.228  0.00  0.00    +0.226 C 
ATOM     10  C   UNL     1      -0.324  13.571 -31.203  0.00  0.00    +0.091 C 
ATOM     11  C   UNL     1      -0.244  15.014 -30.621  0.00  0.00    +0.002 C 
ATOM     12  C   UNL     1       0.904  14.950 -29.569  0.00  0.00    +0.004 C 
ATOM     13  C   UNL     1       2.194  14.799 -30.407  0.00  0.00    +0.004 C 
ATOM     14  C   UNL     1       1.704  14.787 -31.887  0.00  0.00    +0.002 C 
ATOM     15  C   UNL     1       0.460  15.768 -31.804  0.00  0.00    +0.008 C 
ATOM     16  C   UNL     1       0.962  13.407 -32.062  0.00  0.00    +0.091 C 
ATOM     17  C   UNL     1       0.467  13.308 -33.488  0.00  0.00    +0.226 C 
ATOM     18  O   UNL     1       1.170  13.176 -34.465  0.00  0.00    -0.275 OA
ATOM     19  N   UNL     1      -0.909  13.369 -33.448  0.00  0.00    -0.241 N 
ENDBRANCH   7  19
ENDBRANCH   1   7
BRANCH   6  20
ATOM     20  C   UNL     1      -1.269  13.497 -37.538  0.00  0.00    +0.135 C 
BRANCH  20  21
ATOM     21  N   UNL     1      -2.069  12.398 -38.098  0.00  0.00    +0.238 N 
ATOM     22  C   UNL     1      -1.194  11.254 -38.380  0.00  0.00    +0.150 C 
ATOM     23  C   UNL     1      -2.042  10.070 -38.856  0.00  0.00    +0.157 C 
ATOM     24  N   UNL     1      -2.855  10.508 -40.001  0.00  0.00    -0.304 N 
ATOM     25  C   UNL     1      -3.640  11.745 -39.859  0.00  0.00    +0.157 C 
ATOM     26  C   UNL     1      -2.882   9.774 -41.187  0.00  0.00    +0.138 A 
ATOM     27  N   UNL     1      -1.979   9.941 -42.096  0.00  0.00    -0.194 NA
ATOM     28  S   UNL     1      -2.305   8.902 -43.394  0.00  0.00    +0.014 S 
ATOM     29  C   UNL     1      -3.755   8.174 -42.696  0.00  0.00    +0.041 A 
ATOM     30  C   UNL     1      -4.644   7.204 -43.138  0.00  0.00    +0.017 A 
ATOM     31  C   UNL     1      -5.707   6.842 -42.343  0.00  0.00    +0.001 A 
ATOM     32  C   UNL     1      -5.887   7.445 -41.104  0.00  0.00    +0.001 A 
ATOM     33  C   UNL     1      -5.025   8.399 -40.655  0.00  0.00    +0.012 A 
ATOM     34  C   UNL     1      -3.921   8.789 -41.440  0.00  0.00    +0.031 A 
ATOM     35  C   UNL     1      -2.716  12.849 -39.337  0.00  0.00    +0.150 C 
ATOM     36  H   UNL     1      -2.775  12.125 -37.432  0.00  0.00    +0.203 HD
ENDBRANCH  20  21
ENDBRANCH   6  20
TORSDOF 4
ENDMDL
MODEL 3
REMARK VINA RESULT:      -8.1     30.483     32.277
REMARK  Name = ZINC000003927822
REMARK  4 active torsions:
REMARK  status: ('A' for Active; 'I' for Inactive)
REMARK    1  A    between atoms: N_16  and  C_17
REMARK    2  A    between atoms: C_17  and  C_18
REMARK    3  A    between atoms: C_24  and  C_26
REMARK    4  A    between atoms: C_26  and  N_27
REMARK                            x       y       z     vdW  Elec       q    Type
REMARK                         _______ _______ _______ _____ _____    ______ ____
ROOT
ATOM      1  C   UNL     1     -22.228  -4.370 -31.547  0.00  0.00    +0.015 C 
ATOM      2  C   UNL     1     -22.632  -3.418 -32.675  0.00  0.00    +0.005 C 
ATOM      3  C   UNL     1     -24.015  -2.835 -32.378  0.00  0.00    +0.000 C 
ATOM      4  C   UNL     1     -23.972  -2.069 -31.054  0.00  0.00    +0.000 C 
ATOM      5  C   UNL     1     -23.567  -3.021 -29.926  0.00  0.00    +0.009 C 
ATOM      6  C   UNL     1     -22.184  -3.604 -30.224  0.00  0.00    +0.039 C 
ENDROOT
BRANCH   1   7
ATOM      7  C   UNL     1     -20.844  -4.952 -31.845  0.00  0.00    +0.120 C 
BRANCH   7  19
ATOM      8  O   UNL     1     -21.583  -7.633 -31.320  0.00  0.00    -0.275 OA
ATOM      9  C   UNL     1     -21.324  -7.282 -32.451  0.00  0.00    +0.226 C 
ATOM     10  C   UNL     1     -21.357  -8.174 -33.672  0.00  0.00    +0.091 C 
ATOM     11  C   UNL     1     -20.190  -9.200 -33.562  0.00  0.00    +0.002 C 
ATOM     12  C   UNL     1     -20.319 -10.079 -34.843  0.00  0.00    +0.004 C 
ATOM     13  C   UNL     1     -19.905  -9.145 -36.002  0.00  0.00    +0.004 C 
ATOM     14  C   UNL     1     -19.563  -7.789 -35.313  0.00  0.00    +0.002 C 
ATOM     15  C   UNL     1     -18.965  -8.292 -33.932  0.00  0.00    +0.008 C 
ATOM     16  C   UNL     1     -20.949  -7.215 -34.827  0.00  0.00    +0.091 C 
ATOM     17  C   UNL     1     -20.705  -5.882 -34.156  0.00  0.00    +0.226 C 
ATOM     18  O   UNL     1     -20.361  -4.867 -34.722  0.00  0.00    -0.275 OA
ATOM     19  N   UNL     1     -20.972  -6.044 -32.814  0.00  0.00    -0.241 N 
ENDBRANCH   7  19
ENDBRANCH   1   7
BRANCH   6  20
ATOM     20  C   UNL     1     -21.779  -4.556 -29.097  0.00  0.00    +0.135 C 
BRANCH  20  21
ATOM     21  N   UNL     1     -22.864  -4.636 -28.110  0.00  0.00    +0.238 N 
ATOM     22  C   UNL     1     -22.335  -4.321 -26.777  0.00  0.00    +0.150 C 
ATOM     23  C   UNL     1     -23.486  -4.292 -25.766  0.00  0.00    +0.157 C 
ATOM     24  N   UNL     1     -24.209  -5.571 -25.845  0.00  0.00    -0.304 N 
ATOM     25  C   UNL     1     -24.634  -6.046 -27.171  0.00  0.00    +0.157 C 
ATOM     26  C   UNL     1     -24.483  -6.313 -24.695  0.00  0.00    +0.138 A 
ATOM     27  N   UNL     1     -23.612  -7.132 -24.205  0.00  0.00    -0.194 NA
ATOM     28  S   UNL     1     -24.260  -7.863 -22.821  0.00  0.00    +0.014 S 
ATOM     29  C   UNL     1     -25.816  -7.029 -22.876  0.00  0.00    +0.041 A 
ATOM     30  C   UNL     1     -26.948  -7.067 -22.074  0.00  0.00    +0.017 A 
ATOM     31  C   UNL     1     -28.031  -6.277 -22.387  0.00  0.00    +0.001 A 
ATOM     32  C   UNL     1     -27.987  -5.446 -23.500  0.00  0.00    +0.001 A 
ATOM     33  C   UNL     1     -26.885  -5.396 -24.297  0.00  0.00    +0.012 A 
ATOM     34  C   UNL     1     -25.755  -6.187 -24.003  0.00  0.00    +0.031 A 
ATOM     35  C   UNL     1     -23.428  -5.993 -28.114  0.00  0.00    +0.150 C 
ATOM     36  H   UNL     1     -23.586  -3.974 -28.350  0.00  0.00    +0.203 HD
ENDBRANCH  20  21
ENDBRANCH   6  20
TORSDOF 4
ENDMDL
MODEL 4
REMARK VINA RESULT:      -8.0     21.177     23.855
REMARK  Name = ZINC000003927822
REMARK  4 active torsions:
REMARK  status: ('A' for Active; 'I' for Inactive)
REMARK    1  A    between atoms: N_16  and  C_17
REMARK    2  A    between atoms: C_17  and  C_18
REMARK    3  A    between atoms: C_24  and  C_26
REMARK    4  A    between atoms: C_26  and  N_27
REMARK                            x       y       z     vdW  Elec       q    Type
REMARK                         _______ _______ _______ _____ _____    ______ ____
ROOT
ATOM      1  C   UNL     1       4.643  -2.828 -32.424  0.00  0.00    +0.015 C 
ATOM      2  C   UNL     1       5.016  -3.708 -31.230  0.00  0.00    +0.005 C 
ATOM      3  C   UNL     1       4.603  -3.009 -29.933  0.00  0.00    +0.000 C 
ATOM      4  C   UNL     1       3.092  -2.772 -29.940  0.00  0.00    +0.000 C 
ATOM      5  C   UNL     1       2.719  -1.891 -31.135  0.00  0.00    +0.009 C 
ATOM      6  C   UNL     1       3.133  -2.591 -32.432  0.00  0.00    +0.039 C 
ENDROOT
BRANCH   1   7
ATOM      7  C   UNL     1       5.056  -3.528 -33.721  0.00  0.00    +0.120 C 
BRANCH   7  19
ATOM      8  O   UNL     1       7.122  -1.640 -34.143  0.00  0.00    -0.275 OA
ATOM      9  C   UNL     1       7.392  -2.801 -33.925  0.00  0.00    +0.226 C 
ATOM     10  C   UNL     1       8.790  -3.374 -33.852  0.00  0.00    +0.091 C 
ATOM     11  C   UNL     1       9.410  -3.341 -35.281  0.00  0.00    +0.002 C 
ATOM     12  C   UNL     1      10.843  -3.926 -35.100  0.00  0.00    +0.004 C 
ATOM     13  C   UNL     1      10.620  -5.427 -34.810  0.00  0.00    +0.004 C 
ATOM     14  C   UNL     1       9.071  -5.609 -34.845  0.00  0.00    +0.002 C 
ATOM     15  C   UNL     1       8.664  -4.548 -35.952  0.00  0.00    +0.008 C 
ATOM     16  C   UNL     1       8.544  -4.880 -33.550  0.00  0.00    +0.091 C 
ATOM     17  C   UNL     1       7.040  -5.025 -33.499  0.00  0.00    +0.226 C 
ATOM     18  O   UNL     1       6.443  -6.059 -33.290  0.00  0.00    -0.275 OA
ATOM     19  N   UNL     1       6.500  -3.774 -33.705  0.00  0.00    -0.241 N 
ENDBRANCH   7  19
ENDBRANCH   1   7
BRANCH   6  20
ATOM     20  C   UNL     1       2.760  -1.711 -33.627  0.00  0.00    +0.135 C 
BRANCH  20  21
ATOM     21  N   UNL     1       1.950  -2.488 -34.575  0.00  0.00    +0.238 N 
ATOM     22  C   UNL     1       0.808  -1.678 -35.017  0.00  0.00    +0.150 C 
ATOM     23  C   UNL     1       0.027  -2.443 -36.090  0.00  0.00    +0.157 C 
ATOM     24  N   UNL     1      -0.338  -3.763 -35.551  0.00  0.00    -0.304 N 
ATOM     25  C   UNL     1       0.723  -4.577 -34.936  0.00  0.00    +0.157 C 
ATOM     26  C   UNL     1      -1.651  -4.229 -35.620  0.00  0.00    +0.138 A 
ATOM     27  N   UNL     1      -2.522  -3.908 -34.721  0.00  0.00    -0.194 NA
ATOM     28  S   UNL     1      -4.003  -4.637 -35.103  0.00  0.00    +0.014 S 
ATOM     29  C   UNL     1      -3.446  -5.439 -36.574  0.00  0.00    +0.041 A 
ATOM     30  C   UNL     1      -4.067  -6.258 -37.507  0.00  0.00    +0.017 A 
ATOM     31  C   UNL     1      -3.346  -6.740 -38.577  0.00  0.00    +0.001 A 
ATOM     32  C   UNL     1      -2.004  -6.405 -38.718  0.00  0.00    +0.001 A 
ATOM     33  C   UNL     1      -1.380  -5.603 -37.812  0.00  0.00    +0.012 A 
ATOM     34  C   UNL     1      -2.090  -5.086 -36.709  0.00  0.00    +0.031 A 
ATOM     35  C   UNL     1       1.469  -3.710 -33.917  0.00  0.00    +0.150 C 
ATOM     36  H   UNL     1       2.514  -2.737 -35.372  0.00  0.00    +0.203 HD
ENDBRANCH  20  21
ENDBRANCH   6  20
TORSDOF 4
ENDMDL
MODEL 5
REMARK VINA RESULT:      -8.0     21.243     23.974
REMARK  Name = ZINC000003927822
REMARK  4 active torsions:
REMARK  status: ('A' for Active; 'I' for Inactive)
REMARK    1  A    between atoms: N_16  and  C_17
REMARK    2  A    between atoms: C_17  and  C_18
REMARK    3  A    between atoms: C_24  and  C_26
REMARK    4  A    between atoms: C_26  and  N_27
REMARK                            x       y       z     vdW  Elec       q    Type
REMARK                         _______ _______ _______ _____ _____    ______ ____
ROOT
ATOM      1  C   UNL     1       4.000  -3.094 -32.065  0.00  0.00    +0.015 C 
ATOM      2  C   UNL     1       4.120  -3.550 -30.609  0.00  0.00    +0.005 C 
ATOM      3  C   UNL     1       3.607  -2.444 -29.685  0.00  0.00    +0.000 C 
ATOM      4  C   UNL     1       2.142  -2.148 -30.008  0.00  0.00    +0.000 C 
ATOM      5  C   UNL     1       2.022  -1.691 -31.464  0.00  0.00    +0.009 C 
ATOM      6  C   UNL     1       2.535  -2.798 -32.388  0.00  0.00    +0.039 C 
ENDROOT
BRANCH   1   7
ATOM      7  C   UNL     1       4.513  -4.201 -32.989  0.00  0.00    +0.120 C 
BRANCH   7  19
ATOM      8  O   UNL     1       4.760  -3.597 -35.743  0.00  0.00    -0.275 OA
ATOM      9  C   UNL     1       5.716  -3.485 -35.005  0.00  0.00    +0.226 C 
ATOM     10  C   UNL     1       7.096  -3.033 -35.427  0.00  0.00    +0.091 C 
ATOM     11  C   UNL     1       7.726  -4.143 -36.320  0.00  0.00    +0.002 C 
ATOM     12  C   UNL     1       9.124  -3.581 -36.717  0.00  0.00    +0.004 C 
ATOM     13  C   UNL     1       9.948  -3.623 -35.411  0.00  0.00    +0.004 C 
ATOM     14  C   UNL     1       8.970  -4.208 -34.346  0.00  0.00    +0.002 C 
ATOM     15  C   UNL     1       8.116  -5.207 -35.234  0.00  0.00    +0.008 C 
ATOM     16  C   UNL     1       7.906  -3.071 -34.099  0.00  0.00    +0.091 C 
ATOM     17  C   UNL     1       6.922  -3.557 -33.058  0.00  0.00    +0.226 C 
ATOM     18  O   UNL     1       7.172  -3.727 -31.884  0.00  0.00    -0.275 OA
ATOM     19  N   UNL     1       5.711  -3.735 -33.691  0.00  0.00    -0.241 N 
ENDBRANCH   7  19
ENDBRANCH   1   7
BRANCH   6  20
ATOM     20  C   UNL     1       2.416  -2.343 -33.844  0.00  0.00    +0.135 C 
BRANCH  20  21
ATOM     21  N   UNL     1       1.202  -2.917 -34.439  0.00  0.00    +0.238 N 
ATOM     22  C   UNL     1       1.428  -4.338 -34.731  0.00  0.00    +0.150 C 
ATOM     23  C   UNL     1       0.128  -4.966 -35.245  0.00  0.00    +0.157 C 
ATOM     24  N   UNL     1      -0.348  -4.179 -36.394  0.00  0.00    -0.304 N 
ATOM     25  C   UNL     1      -0.448  -2.719 -36.239  0.00  0.00    +0.157 C 
ATOM     26  C   UNL     1      -0.694  -4.798 -37.595  0.00  0.00    +0.138 A 
ATOM     27  N   UNL     1       0.199  -5.075 -38.486  0.00  0.00    -0.194 NA
ATOM     28  S   UNL     1      -0.553  -5.816 -39.810  0.00  0.00    +0.014 S 
ATOM     29  C   UNL     1      -2.190  -5.767 -39.151  0.00  0.00    +0.041 A 
ATOM     30  C   UNL     1      -3.424  -6.188 -39.628  0.00  0.00    +0.017 A 
ATOM     31  C   UNL     1      -4.550  -6.005 -38.858  0.00  0.00    +0.001 A 
ATOM     32  C   UNL     1      -4.448  -5.402 -37.609  0.00  0.00    +0.001 A 
ATOM     33  C   UNL     1      -3.246  -4.984 -37.126  0.00  0.00    +0.012 A 
ATOM     34  C   UNL     1      -2.072  -5.161 -37.886  0.00  0.00    +0.031 A 
ATOM     35  C   UNL     1       0.880  -2.198 -35.679  0.00  0.00    +0.150 C 
ATOM     36  H   UNL     1       0.435  -2.826 -33.791  0.00  0.00    +0.203 HD
ENDBRANCH  20  21
ENDBRANCH   6  20
TORSDOF 4
ENDMDL
MODEL 6
REMARK VINA RESULT:      -7.9      2.790      4.150
REMARK  Name = ZINC000003927822
REMARK  4 active torsions:
REMARK  status: ('A' for Active; 'I' for Inactive)
REMARK    1  A    between atoms: N_16  and  C_17
REMARK    2  A    between atoms: C_17  and  C_18
REMARK    3  A    between atoms: C_24  and  C_26
REMARK    4  A    between atoms: C_26  and  N_27
REMARK                            x       y       z     vdW  Elec       q    Type
REMARK                         _______ _______ _______ _____ _____    ______ ____
ROOT
ATOM      1  C   UNL     1      -3.472  16.776 -31.599  0.00  0.00    +0.015 C 
ATOM      2  C   UNL     1      -4.347  16.459 -32.813  0.00  0.00    +0.005 C 
ATOM      3  C   UNL     1      -5.700  15.923 -32.340  0.00  0.00    +0.000 C 
ATOM      4  C   UNL     1      -6.391  16.978 -31.475  0.00  0.00    +0.000 C 
ATOM      5  C   UNL     1      -5.516  17.296 -30.260  0.00  0.00    +0.009 C 
ATOM      6  C   UNL     1      -4.162  17.831 -30.734  0.00  0.00    +0.039 C 
ENDROOT
BRANCH   1   7
ATOM      7  C   UNL     1      -2.119  17.312 -32.073  0.00  0.00    +0.120 C 
BRANCH   7  19
ATOM      8  O   UNL     1      -1.267  16.106 -34.487  0.00  0.00    -0.275 OA
ATOM      9  C   UNL     1      -0.851  15.700 -33.423  0.00  0.00    +0.226 C 
ATOM     10  C   UNL     1       0.125  14.559 -33.243  0.00  0.00    +0.091 C 
ATOM     11  C   UNL     1      -0.591  13.233 -33.639  0.00  0.00    +0.002 C 
ATOM     12  C   UNL     1       0.492  12.129 -33.442  0.00  0.00    +0.004 C 
ATOM     13  C   UNL     1       0.674  12.028 -31.912  0.00  0.00    +0.004 C 
ATOM     14  C   UNL     1      -0.317  13.080 -31.326  0.00  0.00    +0.002 C 
ATOM     15  C   UNL     1      -1.500  13.004 -32.380  0.00  0.00    +0.008 C 
ATOM     16  C   UNL     1       0.304  14.480 -31.700  0.00  0.00    +0.091 C 
ATOM     17  C   UNL     1      -0.596  15.564 -31.149  0.00  0.00    +0.226 C 
ATOM     18  O   UNL     1      -0.742  15.822 -29.974  0.00  0.00    -0.275 OA
ATOM     19  N   UNL     1      -1.179  16.198 -32.225  0.00  0.00    -0.241 N 
ENDBRANCH   7  19
ENDBRANCH   1   7
BRANCH   6  20
ATOM     20  C   UNL     1      -3.287  18.149 -29.520  0.00  0.00    +0.135 C 
BRANCH  20  21
ATOM     21  N   UNL     1      -4.139  18.561 -28.396  0.00  0.00    +0.238 N 
ATOM     22  C   UNL     1      -4.198  20.027 -28.342  0.00  0.00    +0.150 C 
ATOM     23  C   UNL     1      -5.175  20.458 -27.244  0.00  0.00    +0.157 C 
ATOM     24  N   UNL     1      -4.769  19.820 -25.982  0.00  0.00    -0.304 N 
ATOM     25  C   UNL     1      -4.528  18.368 -25.986  0.00  0.00    +0.157 C 
ATOM     26  C   UNL     1      -4.618  20.569 -24.814  0.00  0.00    +0.138 A 
ATOM     27  N   UNL     1      -3.513  21.187 -24.556  0.00  0.00    -0.194 NA
ATOM     28  S   UNL     1      -3.666  21.993 -23.074  0.00  0.00    +0.014 S 
ATOM     29  C   UNL     1      -5.325  21.483 -22.749  0.00  0.00    +0.041 A 
ATOM     30  C   UNL     1      -6.210  21.721 -21.707  0.00  0.00    +0.017 A 
ATOM     31  C   UNL     1      -7.470  21.167 -21.744  0.00  0.00    +0.001 A 
ATOM     32  C   UNL     1      -7.850  20.375 -22.821  0.00  0.00    +0.001 A 
ATOM     33  C   UNL     1      -6.994  20.131 -23.851  0.00  0.00    +0.012 A 
ATOM     34  C   UNL     1      -5.699  20.687 -23.849  0.00  0.00    +0.031 A 
ATOM     35  C   UNL     1      -3.580  18.038 -27.143  0.00  0.00    +0.150 C 
ATOM     36  H   UNL     1      -5.069  18.193 -28.527  0.00  0.00    +0.203 HD
ENDBRANCH  20  21
ENDBRANCH   6  20
TORSDOF 4
ENDMDL
MODEL 7
REMARK VINA RESULT:      -7.9     20.229     22.338
REMARK  Name = ZINC000003927822
REMARK  4 active torsions:
REMARK  status: ('A' for Active; 'I' for Inactive)
REMARK    1  A    between atoms: N_16  and  C_17
REMARK    2  A    between atoms: C_17  and  C_18
REMARK    3  A    between atoms: C_24  and  C_26
REMARK    4  A    between atoms: C_26  and  N_27
REMARK                            x       y       z     vdW  Elec       q    Type
REMARK                         _______ _______ _______ _____ _____    ______ ____
ROOT
ATOM      1  C   UNL     1       1.688  -1.293 -20.126  0.00  0.00    +0.015 C 
ATOM      2  C   UNL     1       1.375  -1.154 -18.635  0.00  0.00    +0.005 C 
ATOM      3  C   UNL     1      -0.044  -0.611 -18.461  0.00  0.00    +0.000 C 
ATOM      4  C   UNL     1      -1.042  -1.575 -19.104  0.00  0.00    +0.000 C 
ATOM      5  C   UNL     1      -0.730  -1.714 -20.596  0.00  0.00    +0.009 C 
ATOM      6  C   UNL     1       0.691  -2.258 -20.770  0.00  0.00    +0.039 C 
ENDROOT
BRANCH   1   7
ATOM      7  C   UNL     1       3.108  -1.838 -20.300  0.00  0.00    +0.120 C 
BRANCH   7  19
ATOM      8  O   UNL     1       4.130  -1.631 -22.931  0.00  0.00    -0.275 OA
ATOM      9  C   UNL     1       4.404  -0.790 -22.103  0.00  0.00    +0.226 C 
ATOM     10  C   UNL     1       5.280   0.419 -22.342  0.00  0.00    +0.091 C 
ATOM     11  C   UNL     1       6.745  -0.069 -22.551  0.00  0.00    +0.002 C 
ATOM     12  C   UNL     1       7.560   1.235 -22.809  0.00  0.00    +0.004 C 
ATOM     13  C   UNL     1       7.584   1.957 -21.444  0.00  0.00    +0.004 C 
ATOM     14  C   UNL     1       6.782   1.021 -20.488  0.00  0.00    +0.002 C 
ATOM     15  C   UNL     1       7.156  -0.405 -21.074  0.00  0.00    +0.008 C 
ATOM     16  C   UNL     1       5.284   1.138 -20.962  0.00  0.00    +0.091 C 
ATOM     17  C   UNL     1       4.431   0.265 -20.069  0.00  0.00    +0.226 C 
ATOM     18  O   UNL     1       4.191   0.483 -18.901  0.00  0.00    -0.275 OA
ATOM     19  N   UNL     1       3.973  -0.783 -20.836  0.00  0.00    -0.241 N 
ENDBRANCH   7  19
ENDBRANCH   1   7
BRANCH   6  20
ATOM     20  C   UNL     1       1.004  -2.397 -22.260  0.00  0.00    +0.135 C 
BRANCH  20  21
ATOM     21  N   UNL     1      -0.174  -2.925 -22.961  0.00  0.00    +0.238 N 
ATOM     22  C   UNL     1       0.040  -4.343 -23.274  0.00  0.00    +0.150 C 
ATOM     23  C   UNL     1      -1.231  -4.925 -23.902  0.00  0.00    +0.157 C 
ATOM     24  N   UNL     1      -1.600  -4.097 -25.061  0.00  0.00    -0.304 N 
ATOM     25  C   UNL     1      -1.677  -2.639 -24.874  0.00  0.00    +0.157 C 
ATOM     26  C   UNL     1      -1.868  -4.676 -26.302  0.00  0.00    +0.138 A 
ATOM     27  N   UNL     1      -0.916  -4.953 -27.130  0.00  0.00    -0.194 NA
ATOM     28  S   UNL     1      -1.582  -5.641 -28.526  0.00  0.00    +0.014 S 
ATOM     29  C   UNL     1      -3.264  -5.567 -27.992  0.00  0.00    +0.041 A 
ATOM     30  C   UNL     1      -4.467  -5.944 -28.572  0.00  0.00    +0.017 A 
ATOM     31  C   UNL     1      -5.644  -5.752 -27.884  0.00  0.00    +0.001 A 
ATOM     32  C   UNL     1      -5.623  -5.184 -26.616  0.00  0.00    +0.001 A 
ATOM     33  C   UNL     1      -4.452  -4.809 -26.032  0.00  0.00    +0.012 A 
ATOM     34  C   UNL     1      -3.228  -4.997 -26.705  0.00  0.00    +0.031 A 
ATOM     35  C   UNL     1      -0.384  -2.167 -24.202  0.00  0.00    +0.150 C 
ATOM     36  H   UNL     1      -0.986  -2.831 -22.370  0.00  0.00    +0.203 HD
ENDBRANCH  20  21
ENDBRANCH   6  20
TORSDOF 4
ENDMDL
MODEL 8
REMARK VINA RESULT:      -7.8      1.244      2.121
REMARK  Name = ZINC000003927822
REMARK  4 active torsions:
REMARK  status: ('A' for Active; 'I' for Inactive)
REMARK    1  A    between atoms: N_16  and  C_17
REMARK    2  A    between atoms: C_17  and  C_18
REMARK    3  A    between atoms: C_24  and  C_26
REMARK    4  A    between atoms: C_26  and  N_27
REMARK                            x       y       z     vdW  Elec       q    Type
REMARK                         _______ _______ _______ _____ _____    ______ ____
ROOT
ATOM      1  C   UNL     1       0.378  17.867 -30.038  0.00  0.00    +0.015 C 
ATOM      2  C   UNL     1       1.886  17.974 -30.275  0.00  0.00    +0.005 C 
ATOM      3  C   UNL     1       2.184  19.227 -31.100  0.00  0.00    +0.000 C 
ATOM      4  C   UNL     1       1.698  20.465 -30.343  0.00  0.00    +0.000 C 
ATOM      5  C   UNL     1       0.189  20.358 -30.106  0.00  0.00    +0.009 C 
ATOM      6  C   UNL     1      -0.109  19.103 -29.280  0.00  0.00    +0.039 C 
ENDROOT
BRANCH   1   7
ATOM      7  C   UNL     1       0.080  16.614 -29.211  0.00  0.00    +0.120 C 
BRANCH   7  19
ATOM      8  O   UNL     1       1.892  14.440 -29.246  0.00  0.00    -0.275 OA
ATOM      9  C   UNL     1       0.965  14.473 -30.026  0.00  0.00    +0.226 C 
ATOM     10  C   UNL     1       0.662  13.421 -31.068  0.00  0.00    +0.091 C 
ATOM     11  C   UNL     1       1.775  13.471 -32.156  0.00  0.00    +0.002 C 
ATOM     12  C   UNL     1       1.389  12.346 -33.165  0.00  0.00    +0.004 C 
ATOM     13  C   UNL     1       0.126  12.877 -33.879  0.00  0.00    +0.004 C 
ATOM     14  C   UNL     1      -0.132  14.274 -33.236  0.00  0.00    +0.002 C 
ATOM     15  C   UNL     1       1.352  14.757 -32.950  0.00  0.00    +0.008 C 
ATOM     16  C   UNL     1      -0.616  13.966 -31.767  0.00  0.00    +0.091 C 
ATOM     17  C   UNL     1      -0.906  15.279 -31.075  0.00  0.00    +0.226 C 
ATOM     18  O   UNL     1      -1.828  16.020 -31.338  0.00  0.00    -0.275 OA
ATOM     19  N   UNL     1       0.047  15.444 -30.094  0.00  0.00    -0.241 N 
ENDBRANCH   7  19
ENDBRANCH   1   7
BRANCH   6  20
ATOM     20  C   UNL     1      -1.616  18.996 -29.043  0.00  0.00    +0.135 C 
BRANCH  20  21
ATOM     21  N   UNL     1      -1.961  19.653 -27.775  0.00  0.00    +0.238 N 
ATOM     22  C   UNL     1      -2.253  18.632 -26.761  0.00  0.00    +0.150 C 
ATOM     23  C   UNL     1      -2.500  19.312 -25.410  0.00  0.00    +0.157 C 
ATOM     24  N   UNL     1      -3.560  20.318 -25.581  0.00  0.00    -0.304 N 
ATOM     25  C   UNL     1      -3.427  21.284 -26.683  0.00  0.00    +0.157 C 
ATOM     26  C   UNL     1      -4.660  20.356 -24.723  0.00  0.00    +0.138 A 
ATOM     27  N   UNL     1      -5.694  19.609 -24.929  0.00  0.00    -0.194 NA
ATOM     28  S   UNL     1      -6.835  19.901 -23.712  0.00  0.00    +0.014 S 
ATOM     29  C   UNL     1      -5.885  21.110 -22.844  0.00  0.00    +0.041 A 
ATOM     30  C   UNL     1      -6.113  21.862 -21.700  0.00  0.00    +0.017 A 
ATOM     31  C   UNL     1      -5.152  22.746 -21.264  0.00  0.00    +0.001 A 
ATOM     32  C   UNL     1      -3.960  22.880 -21.966  0.00  0.00    +0.001 A 
ATOM     33  C   UNL     1      -3.720  22.150 -23.090  0.00  0.00    +0.012 A 
ATOM     34  C   UNL     1      -4.680  21.231 -23.562  0.00  0.00    +0.031 A 
ATOM     35  C   UNL     1      -3.137  20.510 -27.973  0.00  0.00    +0.150 C 
ATOM     36  H   UNL     1      -1.183  20.218 -27.468  0.00  0.00    +0.203 HD
ENDBRANCH  20  21
ENDBRANCH   6  20
TORSDOF 4
ENDMDL
MODEL 9
REMARK VINA RESULT:      -7.7     19.627     23.190
REMARK  Name = ZINC000003927822
REMARK  4 active torsions:
REMARK  status: ('A' for Active; 'I' for Inactive)
REMARK    1  A    between atoms: N_16  and  C_17
REMARK    2  A    between atoms: C_17  and  C_18
REMARK    3  A    between atoms: C_24  and  C_26
REMARK    4  A    between atoms: C_26  and  N_27
REMARK                            x       y       z     vdW  Elec       q    Type
REMARK                         _______ _______ _______ _____ _____    ______ ____
ROOT
ATOM      1  C   UNL     1     -19.576   8.473 -39.770  0.00  0.00    +0.015 C 
ATOM      2  C   UNL     1     -20.024   7.037 -39.492  0.00  0.00    +0.005 C 
ATOM      3  C   UNL     1     -20.026   6.242 -40.798  0.00  0.00    +0.000 C 
ATOM      4  C   UNL     1     -18.616   6.230 -41.391  0.00  0.00    +0.000 C 
ATOM      5  C   UNL     1     -18.168   7.667 -41.670  0.00  0.00    +0.009 C 
ATOM      6  C   UNL     1     -18.166   8.463 -40.362  0.00  0.00    +0.039 C 
ENDROOT
BRANCH   1   7
ATOM      7  C   UNL     1     -19.574   9.269 -38.462  0.00  0.00    +0.120 C 
BRANCH   7  19
ATOM      8  O   UNL     1     -21.296   8.382 -36.399  0.00  0.00    -0.275 OA
ATOM      9  C   UNL     1     -21.661   9.242 -37.171  0.00  0.00    +0.226 C 
ATOM     10  C   UNL     1     -23.011   9.924 -37.144  0.00  0.00    +0.091 C 
ATOM     11  C   UNL     1     -24.096   8.884 -37.554  0.00  0.00    +0.002 C 
ATOM     12  C   UNL     1     -25.441   9.668 -37.477  0.00  0.00    +0.004 C 
ATOM     13  C   UNL     1     -25.386  10.657 -38.663  0.00  0.00    +0.004 C 
ATOM     14  C   UNL     1     -24.012  10.377 -39.347  0.00  0.00    +0.002 C 
ATOM     15  C   UNL     1     -23.865   8.815 -39.105  0.00  0.00    +0.008 C 
ATOM     16  C   UNL     1     -22.932  10.921 -38.336  0.00  0.00    +0.091 C 
ATOM     17  C   UNL     1     -21.562  10.700 -38.937  0.00  0.00    +0.226 C 
ATOM     18  O   UNL     1     -21.116  11.289 -39.898  0.00  0.00    -0.275 OA
ATOM     19  N   UNL     1     -20.931   9.741 -38.175  0.00  0.00    -0.241 N 
ENDBRANCH   7  19
ENDBRANCH   1   7
BRANCH   6  20
ATOM     20  C   UNL     1     -17.719   9.899 -40.640  0.00  0.00    +0.135 C 
BRANCH  20  21
ATOM     21  N   UNL     1     -16.269   9.923 -40.881  0.00  0.00    +0.238 N 
ATOM     22  C   UNL     1     -15.573   9.378 -39.709  0.00  0.00    +0.150 C 
ATOM     23  C   UNL     1     -14.071   9.296 -40.002  0.00  0.00    +0.157 C 
ATOM     24  N   UNL     1     -13.604  10.626 -40.421  0.00  0.00    -0.304 N 
ATOM     25  C   UNL     1     -14.350  11.319 -41.483  0.00  0.00    +0.157 C 
ATOM     26  C   UNL     1     -12.486  11.215 -39.829  0.00  0.00    +0.138 A 
ATOM     27  N   UNL     1     -12.587  11.883 -38.727  0.00  0.00    -0.194 NA
ATOM     28  S   UNL     1     -11.055  12.456 -38.288  0.00  0.00    +0.014 S 
ATOM     29  C   UNL     1     -10.191  11.766 -39.663  0.00  0.00    +0.041 A 
ATOM     30  C   UNL     1      -8.860  11.778 -40.058  0.00  0.00    +0.017 A 
ATOM     31  C   UNL     1      -8.486  11.130 -41.213  0.00  0.00    +0.001 A 
ATOM     32  C   UNL     1      -9.439  10.466 -41.978  0.00  0.00    +0.001 A 
ATOM     33  C   UNL     1     -10.749  10.444 -41.605  0.00  0.00    +0.012 A 
ATOM     34  C   UNL     1     -11.165  11.092 -40.424  0.00  0.00    +0.031 A 
ATOM     35  C   UNL     1     -15.837  11.307 -41.119  0.00  0.00    +0.150 C 
ATOM     36  H   UNL     1     -16.055   9.361 -41.690  0.00  0.00    +0.203 HD
ENDBRANCH  20  21
ENDBRANCH   6  20
TORSDOF 4
ENDMDL
