@<TRIPOS>MOLECULE
ZINC000003927822
  72   78    0    0    0
SMALL
NO_CHARGES
@<TRIPOS>ATOM
   1 O1            -0.0704    -0.1436     0.4269 O.2     
   2 C2            -0.1390     1.0552     0.5932 C.2     
   3 C3            -1.4148     1.8335     0.8221 C.3     
   4 H4            -1.9796     1.4820     1.6855 H       
   5 C5            -2.2451     1.8163    -0.4965 C.3     
   6 H6            -2.3980     0.8367    -0.9494 H       
   7 C7            -3.5384     2.6177    -0.1556 C.3     
   8 C8            -3.0646     4.0824    -0.0160 C.3     
   9 C9            -1.5300     4.0279    -0.2865 C.3     
  10 H10           -1.0632     4.9712    -0.5698 H       
  11 C11           -1.4500     2.8599    -1.3571 C.3     
  12 C12           -0.9179     3.2996     0.9707 C.3     
  13 H13           -1.2127     3.7589     1.9142 H       
  14 C14            0.5815     3.2209     0.7941 C.2     
  15 O15            1.3420     4.1641     0.8359 O.2     
  16 N16            0.9029     1.8943     0.6083 N.am    
  17 C17            2.2785     1.4337     0.4034 C.3     
  18 C18            2.9156     1.1121     1.7568 C.3     
  19 H19            2.2920     0.3950     2.2906 H       
  20 C20            3.0370     2.3953     2.5810 C.3     
  21 C21            3.6741     2.0738     3.9344 C.3     
  22 C22            5.0650     1.4756     3.7141 C.3     
  23 C23            4.9435     0.1923     2.8898 C.3     
  24 C24            4.3064     0.5139     1.5364 C.3     
  25 H25            4.9300     1.2310     1.0025 H       
  26 C26            4.1850    -0.7693     0.7121 C.3     
  27 N27            5.5236    -1.3230     0.4679 N.4     
  28 H28            5.9482    -1.5736     1.3482 H       
  29 C29            6.3531    -0.3149    -0.2042 C.3     
  30 C30            7.7811    -0.8490    -0.3565 C.3     
  31 N31            7.7226    -2.1462    -1.0479 N.pl3   
  32 C32            8.5276    -2.4045    -2.1584 C.2     
  33 N33            8.1640    -2.0482    -3.3451 N.2     
  34 S34            9.3611    -2.5098    -4.4506 S.3     
  35 C35           10.4459    -3.2387    -3.2644 C.ar    
  36 C36           11.6816    -3.8638    -3.3584 C.ar    
  37 C37           12.2920    -4.3409    -2.2195 C.ar    
  38 C38           11.6707    -4.1950    -0.9854 C.ar    
  39 C39           10.4591    -3.5851    -0.8752 C.ar    
  40 C40            9.8088    -3.0792    -2.0194 C.ar    
  41 C41            6.7912    -3.1632    -0.5358 C.3     
  42 C42            5.4101    -2.5187    -0.3768 C.3     
  43 H43           -4.2647     2.5285    -0.9634 H       
  44 H44           -3.9672     2.2659     0.7827 H       
  45 H45           -3.5585     4.7136    -0.7548 H       
  46 H46           -3.2601     4.4507     0.9911 H       
  47 H47           -0.4222     2.5529    -1.5510 H       
  48 H48           -1.9768     3.1122    -2.2774 H       
  49 H49            2.2729     0.5379    -0.2176 H       
  50 H50            2.8535     2.2158    -0.0922 H       
  51 H51            3.6605     3.1125     2.0472 H       
  52 H52            2.0461     2.8215     2.7380 H       
  53 H53            3.7607     2.9880     4.5216 H       
  54 H54            3.0506     1.3566     4.4683 H       
  55 H55            5.6885     2.1927     3.1802 H       
  56 H56            5.5189     1.2465     4.6782 H       
  57 H57            5.9344    -0.2338     2.7328 H       
  58 H58            4.3200    -0.5248     3.4237 H       
  59 H59            3.5850    -1.4969     1.2588 H       
  60 H60            3.7051    -0.5452    -0.2406 H       
  61 H61            5.9382    -0.1008    -1.1892 H       
  62 H62            6.3681     0.5985     0.3904 H       
  63 H63            8.3739    -0.1475    -0.9435 H       
  64 H64            8.2306    -0.9786     0.6280 H       
  65 H65           12.1617    -3.9759    -4.3193 H       
  66 H66           13.2533    -4.8286    -2.2858 H       
  67 H67           12.1575    -4.5725    -0.0983 H       
  68 H68            9.9953    -3.4836     0.0948 H       
  69 H69            6.7295    -3.9918    -1.2414 H       
  70 H70            7.1407    -3.5265     0.4306 H       
  71 H71            4.7292    -3.2292     0.0918 H       
  72 H72            5.0248    -2.2383    -1.3572 H       
@<TRIPOS>BOND
   1    1    2 2
   2    2   16 am
   3    2    3 1
   4    3    4 1
   5    3   12 1
   6    3    5 1
   7    5    6 1
   8    5   11 1
   9    5    7 1
  10    7    8 1
  11    7   43 1
  12    7   44 1
  13    8    9 1
  14    8   45 1
  15    8   46 1
  16    9   10 1
  17    9   11 1
  18    9   12 1
  19   11   47 1
  20   11   48 1
  21   12   13 1
  22   12   14 1
  23   14   15 2
  24   14   16 am
  25   16   17 1
  26   17   18 1
  27   17   49 1
  28   17   50 1
  29   18   19 1
  30   18   24 1
  31   18   20 1
  32   20   21 1
  33   20   51 1
  34   20   52 1
  35   21   22 1
  36   21   53 1
  37   21   54 1
  38   22   23 1
  39   22   55 1
  40   22   56 1
  41   23   24 1
  42   23   57 1
  43   23   58 1
  44   24   25 1
  45   24   26 1
  46   26   27 1
  47   26   59 1
  48   26   60 1
  49   27   28 1
  50   27   42 1
  51   27   29 1
  52   29   30 1
  53   29   61 1
  54   29   62 1
  55   30   31 1
  56   30   63 1
  57   30   64 1
  58   31   32 1
  59   31   41 1
  60   32   40 1
  61   32   33 2
  62   33   34 1
  63   34   35 1
  64   35   40 ar
  65   35   36 ar
  66   36   37 ar
  67   36   65 1
  68   37   38 ar
  69   37   66 1
  70   38   39 ar
  71   38   67 1
  72   39   40 ar
  73   39   68 1
  74   41   42 1
  75   41   69 1
  76   41   70 1
  77   42   71 1
  78   42   72 1
