REMARK  Name = ZINC000001554197
REMARK  12 active torsions:
REMARK  status: ('A' for Active; 'I' for Inactive)
REMARK    1  A    between atoms: C1_1  and  C2_2
REMARK    2  A    between atoms: C2_2  and  C3_3
REMARK    3  A    between atoms: C2_2  and  N4_4
REMARK    4  A    between atoms: C2_2  and  C8_8
REMARK    5  A    between atoms: N10_10  and  C11_11
REMARK    6  A    between atoms: C11_11  and  C13_13
REMARK    7  A    between atoms: C11_11  and  C23_23
REMARK    8  A    between atoms: C13_13  and  C14_14
REMARK    9  A    between atoms: N25_25  and  C26_26
REMARK   10  A    between atoms: C26_26  and  C28_28
REMARK   11  A    between atoms: C26_26  and  N38_38
REMARK   12  A    between atoms: C28_28  and  C29_29
REMARK                            x       y       z     vdW  Elec       q    Type
REMARK                         _______ _______ _______ _____ _____    ______ ____
ROOT
ATOM      1  C   UNL     1       1.119  -2.186  -2.939  0.00  0.00    +0.260 C 
ENDROOT
BRANCH   1   3
ATOM      2  C   UNL     1       0.707  -0.490  -1.238  0.00  0.00    +0.500 C 
ATOM      3  N   UNL     1       0.433  -1.713  -1.733  0.00  0.00    -0.710 N 
ATOM      4  H   UNL     1      -0.218  -2.281  -1.292  0.00  0.00    +0.390 HD
ATOM      5  O   UNL     1       1.522   0.219  -1.790  0.00  0.00    -0.440 OA
BRANCH   2   7
ATOM      6  C   UNL     1      -0.019   1.526   0.010  0.00  0.00    +0.130 C 
ATOM      7  C   UNL     1       0.002  -0.004   0.002  0.00  0.00    +0.050 C 
ATOM      8  C   UNL     1       0.742  -0.511   1.242  0.00  0.00    +0.120 C 
BRANCH   7   9
ATOM      9  N   UNL     1      -1.376  -0.512   0.012  0.00  0.00    -0.630 N 
ATOM     10  H   UNL     1      -1.848  -0.187   0.843  0.00  0.00    +0.440 HD
ATOM     11  H   UNL     1      -1.362  -1.521   0.007  0.00  0.00    +0.430 HD
ATOM     12  H   UNL     1      -1.864  -0.178  -0.805  0.00  0.00    +0.440 HD
ENDBRANCH   7   9
ENDBRANCH   2   7
ENDBRANCH   1   3
BRANCH   1  13
ATOM     13  C   UNL     1       0.821  -1.253  -4.085  0.00  0.00    +0.500 C 
ATOM     14  N   UNL     1       0.989  -1.671  -5.355  0.00  0.00    -0.730 N 
ATOM     15  H   UNL     1       1.303  -2.572  -5.531  0.00  0.00    +0.400 HD
ATOM     16  O   UNL     1       0.429  -0.127  -3.864  0.00  0.00    -0.500 OA
BRANCH  14  17
ATOM     17  C   UNL     1       0.699  -0.765  -6.469  0.00  0.00    +0.490 C 
BRANCH  17  18
ATOM     18  N   UNL     1       1.956  -0.285  -7.048  0.00  0.00    -0.730 N 
ATOM     19  H   UNL     1       2.488  -0.872  -7.607  0.00  0.00    +0.400 HD
ATOM     20  C   UNL     1       2.373   0.973  -6.803  0.00  0.00    +0.630 C 
ATOM     21  O   UNL     1       1.708   1.708  -6.103  0.00  0.00    -0.530 OA
ENDBRANCH  17  18
BRANCH  17  22
ATOM     22  C   UNL     1      -0.102  -1.511  -7.537  0.00  0.00    +0.120 C 
BRANCH  22  23
ATOM     23  C   UNL     1      -0.401  -0.579  -8.683  0.00  0.00    -0.180 A 
ATOM     24  C   UNL     1      -1.518   0.147  -8.852  0.00  0.00    +0.240 A 
ATOM     25  N   UNL     1      -1.431   0.874 -10.008  0.00  0.00    -0.590 N 
ATOM     26  H   UNL     1      -2.117   1.474 -10.341  0.00  0.00    +0.420 HD
ATOM     27  C   UNL     1      -0.226   0.629 -10.626  0.00  0.00    +0.090 A 
ATOM     28  C   UNL     1       0.361   1.093 -11.799  0.00  0.00    -0.010 A 
ATOM     29  C   UNL     1       1.614   0.647 -12.160  0.00  0.00    +0.030 A 
ATOM     30  C   UNL     1       2.299  -0.261 -11.365  0.00  0.00    -0.020 A 
ATOM     31  C   UNL     1       1.741  -0.730 -10.209  0.00  0.00    +0.040 A 
ATOM     32  C   UNL     1       0.475  -0.288  -9.821  0.00  0.00    -0.090 A 
ENDBRANCH  22  23
ENDBRANCH  17  22
ENDBRANCH  14  17
ENDBRANCH   1  13
BRANCH   1  33
ATOM     33  C   UNL     1       2.628  -2.218  -2.687  0.00  0.00    +0.140 C 
BRANCH  33  34
ATOM     34  C   UNL     1       2.939  -3.241  -1.625  0.00  0.00    -0.170 A 
ATOM     35  C   UNL     1       3.079  -3.009  -0.310  0.00  0.00    +0.210 A 
ATOM     36  N   UNL     1       3.358  -4.179   0.342  0.00  0.00    -0.590 N 
ATOM     37  H   UNL     1       3.501  -4.264   1.298  0.00  0.00    +0.420 HD
ATOM     38  C   UNL     1       3.405  -5.219  -0.560  0.00  0.00    +0.100 A 
ATOM     39  C   UNL     1       3.645  -6.583  -0.437  0.00  0.00    -0.010 A 
ATOM     40  C   UNL     1       3.624  -7.385  -1.557  0.00  0.00    +0.040 A 
ATOM     41  C   UNL     1       3.367  -6.846  -2.809  0.00  0.00    -0.010 A 
ATOM     42  C   UNL     1       3.129  -5.508  -2.953  0.00  0.00    +0.040 A 
ATOM     43  C   UNL     1       3.139  -4.678  -1.831  0.00  0.00    -0.100 A 
ENDBRANCH  33  34
ENDBRANCH   1  33
TORSDOF 10
