@<TRIPOS>MOLECULE
ZINC000001554197
66    69    1     0     0
SMALL
USER_CHARGES
@<TRIPOS>ATOM
1      C1     -0.0187    1.5258    0.0104 C.3      1 ZINC000001554197   -0.1700
2      C2      0.0021   -0.0041    0.0020 C.3      1 ZINC000001554197    0.0500
3      C3      0.7421   -0.5109    1.2415 C.3      1 ZINC000001554197   -0.1800
4      N4     -1.3761   -0.5125    0.0124 N.4      1 ZINC000001554197   -0.6300
5      H5     -1.8641   -0.1783   -0.8050 H        1 ZINC000001554197    0.4400
6      H6     -1.3624   -1.5214    0.0069 H        1 ZINC000001554197    0.4300
7      H7     -1.8484   -0.1871    0.8426 H        1 ZINC000001554197    0.4400
8      C8      0.7074   -0.4901   -1.2379 C.2      1 ZINC000001554197    0.5000
9      O9      1.5216    0.2194   -1.7898 O.2      1 ZINC000001554197   -0.4400
10     N10     0.4335   -1.7132   -1.7333 N.am     1 ZINC000001554197   -0.7100
11     C11     1.1193   -2.1856   -2.9387 C.3      1 ZINC000001554197    0.1400
12     H12     0.7704   -3.1883   -3.1857 H        1 ZINC000001554197    0.1200
13     C13     2.6281   -2.2180   -2.6874 C.3      1 ZINC000001554197   -0.0500
14     C14     2.9387   -3.2409   -1.6252 C.2      1 ZINC000001554197   -0.1700
15     C15     3.0789   -3.0094   -0.3105 C.2      1 ZINC000001554197    0.0500
16     N16     3.3580   -4.1793    0.3422 N.pl3    1 ZINC000001554197   -0.5900
17     C17     3.4053   -5.2186   -0.5597 C.ar     1 ZINC000001554197    0.1000
18     C18     3.6448   -6.5832   -0.4366 C.ar     1 ZINC000001554197   -0.1300
19     C19     3.6243   -7.3853   -1.5568 C.ar     1 ZINC000001554197   -0.0900
20     C20     3.3668   -6.8457   -2.8093 C.ar     1 ZINC000001554197   -0.1400
21     C21     3.1288   -5.5076   -2.9531 C.ar     1 ZINC000001554197   -0.0800
22     C22     3.1385   -4.6775   -1.8308 C.ar     1 ZINC000001554197   -0.1000
23     C23     0.8207   -1.2534   -4.0845 C.2      1 ZINC000001554197    0.5000
24     O24     0.4288   -0.1271   -3.8636 O.2      1 ZINC000001554197   -0.5000
25     N25     0.9892   -1.6713   -5.3547 N.am     1 ZINC000001554197   -0.7300
26     C26     0.6990   -0.7651   -6.4686 C.3      1 ZINC000001554197    0.3600
27     H27     0.1187    0.0830   -6.1052 H        1 ZINC000001554197    0.1300
28     C28    -0.1025   -1.5110   -7.5373 C.3      1 ZINC000001554197   -0.0500
29     C29    -0.4010   -0.5788   -8.6832 C.2      1 ZINC000001554197   -0.1800
30     C30    -1.5178    0.1467   -8.8521 C.2      1 ZINC000001554197    0.0700
31     N31    -1.4311    0.8743  -10.0077 N.pl3    1 ZINC000001554197   -0.5900
32     C32    -0.2258    0.6286  -10.6263 C.ar     1 ZINC000001554197    0.0900
33     C33     0.3611    1.0928  -11.7987 C.ar     1 ZINC000001554197   -0.1300
34     C34     1.6141    0.6475  -12.1596 C.ar     1 ZINC000001554197   -0.1000
35     C35     2.2986   -0.2610  -11.3646 C.ar     1 ZINC000001554197   -0.1400
36     C36     1.7408   -0.7301  -10.2086 C.ar     1 ZINC000001554197   -0.0800
37     C37     0.4750   -0.2876   -9.8206 C.ar     1 ZINC000001554197   -0.0900
38     N38     1.9560   -0.2846   -7.0475 N.am     1 ZINC000001554197   -0.7300
39     C39     2.3732    0.9734   -6.8027 C.2      1 ZINC000001554197    0.5000
40     O40     1.7079    1.7076   -6.1033 O.2      1 ZINC000001554197   -0.5300
41     H41     1.0039    1.9031    0.0027 H        1 ZINC000001554197    0.1200
42     H42    -0.5459    1.8868   -0.8726 H        1 ZINC000001554197    0.0900
43     H43    -0.5289    1.8773    0.9072 H        1 ZINC000001554197    0.0900
44     H44     0.2319   -0.1594    2.1383 H        1 ZINC000001554197    0.1000
45     H45     0.7568   -1.6008    1.2356 H        1 ZINC000001554197    0.0900
46     H46     1.7647   -0.1336    1.2338 H        1 ZINC000001554197    0.1100
47     H47    -0.2176   -2.2806   -1.2919 H        1 ZINC000001554197    0.3900
48     H48     3.1444   -2.4838   -3.6099 H        1 ZINC000001554197    0.0900
49     H49     2.9622   -1.2354   -2.3543 H        1 ZINC000001554197    0.1000
50     H50     2.9857   -2.0428    0.1622 H        1 ZINC000001554197    0.1600
51     H51     3.5012   -4.2638    1.2978 H        1 ZINC000001554197    0.4200
52     H52     3.8465   -7.0125    0.5336 H        1 ZINC000001554197    0.1200
53     H53     3.8108   -8.4446   -1.4592 H        1 ZINC000001554197    0.1300
54     H54     3.3547   -7.4882   -3.6772 H        1 ZINC000001554197    0.1300
55     H55     2.9292   -5.0947   -3.9309 H        1 ZINC000001554197    0.1200
56     H56     1.3027   -2.5721   -5.5313 H        1 ZINC000001554197    0.4000
57     H57     0.4778   -2.3591   -7.9007 H        1 ZINC000001554197    0.0800
58     H58    -1.0378   -1.8685   -7.1066 H        1 ZINC000001554197    0.0900
59     H59    -2.3601    0.1546   -8.1762 H        1 ZINC000001554197    0.1700
60     H60    -2.1167    1.4739  -10.3414 H        1 ZINC000001554197    0.4200
61     H61    -0.1638    1.7996  -12.4243 H        1 ZINC000001554197    0.1200
62     H62     2.0679    1.0089  -13.0706 H        1 ZINC000001554197    0.1300
63     H63     3.2799   -0.6002  -11.6620 H        1 ZINC000001554197    0.1200
64     H64     2.2794   -1.4370   -9.5949 H        1 ZINC000001554197    0.1200
65     H65     2.4881   -0.8718   -7.6069 H        1 ZINC000001554197    0.4000
66     H66     3.2999    1.3277   -7.2295 H        1 ZINC000001554197    0.1300
@<TRIPOS>BOND
1     1     2     1
2     1     41    1
3     1     42    1
4     1     43    1
5     2     3     1
6     2     4     1
7     2     8     1
8     3     44    1
9     3     45    1
10    3     46    1
11    4     5     1
12    4     6     1
13    4     7     1
14    8     9     2
15    8     10    am
16    10    11    1
17    10    47    1
18    11    12    1
19    11    13    1
20    11    23    1
21    13    14    1
22    13    48    1
23    13    49    1
24    14    22    1
25    14    15    2
26    15    16    1
27    15    50    1
28    16    17    1
29    16    51    1
30    17    22    ar
31    17    18    ar
32    18    19    ar
33    18    52    1
34    19    20    ar
35    19    53    1
36    20    21    ar
37    20    54    1
38    21    22    ar
39    21    55    1
40    23    24    2
41    23    25    am
42    25    26    1
43    25    56    1
44    26    27    1
45    26    28    1
46    26    38    1
47    28    29    1
48    28    57    1
49    28    58    1
50    29    37    1
51    29    30    2
52    30    31    1
53    30    59    1
54    31    32    1
55    31    60    1
56    32    37    ar
57    32    33    ar
58    33    34    ar
59    33    61    1
60    34    35    ar
61    34    62    1
62    35    36    ar
63    35    63    1
64    36    37    ar
65    36    64    1
66    38    39    am
67    38    65    1
68    39    40    2
69    39    66    1
@<TRIPOS>SUBSTRUCTURE
1   ZINC000001554197 1     RESIDUE    1   A     ZIN   1
