MODEL 1
REMARK VINA RESULT:      -7.4      0.000      0.000
REMARK  Name = ZINC000001554197
REMARK  12 active torsions:
REMARK  status: ('A' for Active; 'I' for Inactive)
REMARK    1  A    between atoms: C1_1  and  C2_2
REMARK    2  A    between atoms: C2_2  and  C3_3
REMARK    3  A    between atoms: C2_2  and  N4_4
REMARK    4  A    between atoms: C2_2  and  C8_8
REMARK    5  A    between atoms: N10_10  and  C11_11
REMARK    6  A    between atoms: C11_11  and  C13_13
REMARK    7  A    between atoms: C11_11  and  C23_23
REMARK    8  A    between atoms: C13_13  and  C14_14
REMARK    9  A    between atoms: N25_25  and  C26_26
REMARK   10  A    between atoms: C26_26  and  C28_28
REMARK   11  A    between atoms: C26_26  and  N38_38
REMARK   12  A    between atoms: C28_28  and  C29_29
REMARK                            x       y       z     vdW  Elec       q    Type
REMARK                         _______ _______ _______ _____ _____    ______ ____
ROOT
ATOM      1  C   UNL     1      -0.316  12.513 -35.595  0.00  0.00    +0.260 C 
ENDROOT
BRANCH   1   3
ATOM      2  C   UNL     1      -0.225  10.370 -36.752  0.00  0.00    +0.500 C 
ATOM      3  N   UNL     1      -0.917  11.487 -36.452  0.00  0.00    -0.710 N 
ATOM      4  H   UNL     1      -1.813  11.612 -36.801  0.00  0.00    +0.390 HD
ATOM      5  O   UNL     1       0.896  10.215 -36.315  0.00  0.00    -0.440 OA
BRANCH   2   7
ATOM      6  C   UNL     1      -0.861   7.978 -36.891  0.00  0.00    +0.130 C 
ATOM      7  C   UNL     1      -0.843   9.315 -37.633  0.00  0.00    +0.050 C 
ATOM      8  C   UNL     1      -0.021   9.176 -38.916  0.00  0.00    +0.120 C 
BRANCH   7   9
ATOM      9  N   UNL     1      -2.218   9.705 -37.973  0.00  0.00    -0.630 N 
ATOM     10  H   UNL     1      -2.232  10.675 -38.254  0.00  0.00    +0.440 HD
ATOM     11  H   UNL     1      -2.811   9.581 -37.166  0.00  0.00    +0.430 HD
ATOM     12  H   UNL     1      -2.554   9.130 -38.729  0.00  0.00    +0.440 HD
ENDBRANCH   7   9
ENDBRANCH   2   7
ENDBRANCH   1   3
BRANCH   1  13
ATOM     13  C   UNL     1      -0.422  13.856 -36.271  0.00  0.00    +0.500 C 
ATOM     14  N   UNL     1      -1.350  14.059 -37.226  0.00  0.00    -0.730 N 
ATOM     15  H   UNL     1      -1.949  13.339 -37.479  0.00  0.00    +0.400 HD
ATOM     16  O   UNL     1       0.328  14.755 -35.954  0.00  0.00    -0.500 OA
BRANCH  14  17
ATOM     17  C   UNL     1      -1.454  15.364 -37.883  0.00  0.00    +0.490 C 
BRANCH  17  18
ATOM     18  N   UNL     1      -1.513  15.177 -39.334  0.00  0.00    -0.730 N 
ATOM     19  H   UNL     1      -2.367  15.202 -39.792  0.00  0.00    +0.400 HD
ATOM     20  C   UNL     1      -0.379  14.970 -40.033  0.00  0.00    +0.630 C 
ATOM     21  O   UNL     1       0.691  14.938 -39.460  0.00  0.00    -0.530 OA
ENDBRANCH  17  18
BRANCH  17  22
ATOM     22  C   UNL     1      -2.723  16.073 -37.408  0.00  0.00    +0.120 C 
BRANCH  22  23
ATOM     23  C   UNL     1      -2.371  17.063 -36.327  0.00  0.00    -0.180 A 
ATOM     24  C   UNL     1      -1.703  18.217 -36.487  0.00  0.00    +0.240 A 
ATOM     25  N   UNL     1      -1.571  18.850 -35.281  0.00  0.00    -0.590 N 
ATOM     26  H   UNL     1      -1.126  19.701 -35.145  0.00  0.00    +0.420 HD
ATOM     27  C   UNL     1      -2.166  18.101 -34.291  0.00  0.00    +0.090 A 
ATOM     28  C   UNL     1      -2.318  18.275 -32.919  0.00  0.00    -0.010 A 
ATOM     29  C   UNL     1      -2.980  17.320 -32.178  0.00  0.00    +0.030 A 
ATOM     30  C   UNL     1      -3.498  16.185 -32.786  0.00  0.00    -0.020 A 
ATOM     31  C   UNL     1      -3.360  15.994 -34.132  0.00  0.00    +0.040 A 
ATOM     32  C   UNL     1      -2.698  16.951 -34.903  0.00  0.00    -0.090 A 
ENDBRANCH  22  23
ENDBRANCH  17  22
ENDBRANCH  14  17
ENDBRANCH   1  13
BRANCH   1  33
ATOM     33  C   UNL     1      -1.056  12.556 -34.256  0.00  0.00    +0.140 C 
BRANCH  33  34
ATOM     34  C   UNL     1      -0.057  12.672 -33.133  0.00  0.00    -0.170 A 
ATOM     35  C   UNL     1       0.630  11.666 -32.569  0.00  0.00    +0.210 A 
ATOM     36  N   UNL     1       1.442  12.153 -31.582  0.00  0.00    -0.590 N 
ATOM     37  H   UNL     1       2.034  11.616 -31.032  0.00  0.00    +0.420 HD
ATOM     38  C   UNL     1       1.293  13.519 -31.483  0.00  0.00    +0.100 A 
ATOM     39  C   UNL     1       1.865  14.487 -30.666  0.00  0.00    -0.010 A 
ATOM     40  C   UNL     1       1.501  15.808 -30.813  0.00  0.00    +0.040 A 
ATOM     41  C   UNL     1       0.568  16.183 -31.768  0.00  0.00    -0.010 A 
ATOM     42  C   UNL     1      -0.007  15.247 -32.582  0.00  0.00    +0.040 A 
ATOM     43  C   UNL     1       0.352  13.905 -32.454  0.00  0.00    -0.100 A 
ENDBRANCH  33  34
ENDBRANCH   1  33
TORSDOF 10
ENDMDL
MODEL 2
REMARK VINA RESULT:      -7.0     26.773     29.717
REMARK  Name = ZINC000001554197
REMARK  12 active torsions:
REMARK  status: ('A' for Active; 'I' for Inactive)
REMARK    1  A    between atoms: C1_1  and  C2_2
REMARK    2  A    between atoms: C2_2  and  C3_3
REMARK    3  A    between atoms: C2_2  and  N4_4
REMARK    4  A    between atoms: C2_2  and  C8_8
REMARK    5  A    between atoms: N10_10  and  C11_11
REMARK    6  A    between atoms: C11_11  and  C13_13
REMARK    7  A    between atoms: C11_11  and  C23_23
REMARK    8  A    between atoms: C13_13  and  C14_14
REMARK    9  A    between atoms: N25_25  and  C26_26
REMARK   10  A    between atoms: C26_26  and  C28_28
REMARK   11  A    between atoms: C26_26  and  N38_38
REMARK   12  A    between atoms: C28_28  and  C29_29
REMARK                            x       y       z     vdW  Elec       q    Type
REMARK                         _______ _______ _______ _____ _____    ______ ____
ROOT
ATOM      1  C   UNL     1     -21.192  -5.582 -27.795  0.00  0.00    +0.260 C 
ENDROOT
BRANCH   1   3
ATOM      2  C   UNL     1     -19.318  -4.790 -26.453  0.00  0.00    +0.500 C 
ATOM      3  N   UNL     1     -20.193  -5.775 -26.740  0.00  0.00    -0.710 N 
ATOM      4  H   UNL     1     -20.162  -6.610 -26.248  0.00  0.00    +0.390 HD
ATOM      5  O   UNL     1     -19.357  -3.746 -27.069  0.00  0.00    -0.440 OA
BRANCH   2   7
ATOM      6  C   UNL     1     -16.969  -4.348 -25.795  0.00  0.00    +0.130 C 
ATOM      7  C   UNL     1     -18.291  -4.988 -25.368  0.00  0.00    +0.050 C 
ATOM      8  C   UNL     1     -18.081  -6.485 -25.130  0.00  0.00    +0.120 C 
BRANCH   7   9
ATOM      9  N   UNL     1     -18.762  -4.357 -24.128  0.00  0.00    -0.630 N 
ATOM     10  H   UNL     1     -18.323  -4.804 -23.336  0.00  0.00    +0.440 HD
ATOM     11  H   UNL     1     -19.763  -4.458 -24.059  0.00  0.00    +0.430 HD
ATOM     12  H   UNL     1     -18.523  -3.377 -24.137  0.00  0.00    +0.440 HD
ENDBRANCH   7   9
ENDBRANCH   2   7
ENDBRANCH   1   3
BRANCH   1  13
ATOM     13  C   UNL     1     -20.632  -6.062 -29.110  0.00  0.00    +0.500 C 
ATOM     14  N   UNL     1     -20.877  -7.319 -29.528  0.00  0.00    -0.730 N 
ATOM     15  H   UNL     1     -21.413  -7.916 -28.982  0.00  0.00    +0.400 HD
ATOM     16  O   UNL     1     -19.961  -5.316 -29.792  0.00  0.00    -0.500 OA
BRANCH  14  17
ATOM     17  C   UNL     1     -20.333  -7.786 -30.806  0.00  0.00    +0.490 C 
BRANCH  17  18
ATOM     18  N   UNL     1     -19.807  -9.143 -30.647  0.00  0.00    -0.730 N 
ATOM     19  H   UNL     1     -20.248  -9.889 -31.082  0.00  0.00    +0.400 HD
ATOM     20  C   UNL     1     -18.709  -9.355 -29.894  0.00  0.00    +0.630 C 
ATOM     21  O   UNL     1     -18.157  -8.423 -29.348  0.00  0.00    -0.530 OA
ENDBRANCH  17  18
BRANCH  17  22
ATOM     22  C   UNL     1     -21.442  -7.790 -31.860  0.00  0.00    +0.120 C 
BRANCH  22  23
ATOM     23  C   UNL     1     -21.233  -6.640 -32.812  0.00  0.00    -0.180 A 
ATOM     24  C   UNL     1     -21.815  -5.432 -32.745  0.00  0.00    +0.240 A 
ATOM     25  N   UNL     1     -21.383  -4.648 -33.781  0.00  0.00    -0.590 N 
ATOM     26  H   UNL     1     -21.664  -3.734 -33.942  0.00  0.00    +0.420 HD
ATOM     27  C   UNL     1     -20.490  -5.350 -34.558  0.00  0.00    +0.090 A 
ATOM     28  C   UNL     1     -19.768  -5.039 -35.706  0.00  0.00    -0.010 A 
ATOM     29  C   UNL     1     -18.934  -5.982 -36.266  0.00  0.00    +0.030 A 
ATOM     30  C   UNL     1     -18.805  -7.241 -35.698  0.00  0.00    -0.020 A 
ATOM     31  C   UNL     1     -19.506  -7.569 -34.571  0.00  0.00    +0.040 A 
ATOM     32  C   UNL     1     -20.353  -6.627 -33.983  0.00  0.00    -0.090 A 
ENDBRANCH  22  23
ENDBRANCH  17  22
ENDBRANCH  14  17
ENDBRANCH   1  13
BRANCH   1  33
ATOM     33  C   UNL     1     -22.451  -6.382 -27.456  0.00  0.00    +0.140 C 
BRANCH  33  34
ATOM     34  C   UNL     1     -23.542  -5.440 -27.014  0.00  0.00    -0.170 A 
ATOM     35  C   UNL     1     -24.629  -5.091 -27.720  0.00  0.00    +0.210 A 
ATOM     36  N   UNL     1     -25.393  -4.217 -26.996  0.00  0.00    -0.590 N 
ATOM     37  H   UNL     1     -26.229  -3.825 -27.297  0.00  0.00    +0.420 HD
ATOM     38  C   UNL     1     -24.802  -3.977 -25.776  0.00  0.00    +0.100 A 
ATOM     39  C   UNL     1     -25.146  -3.188 -24.684  0.00  0.00    -0.010 A 
ATOM     40  C   UNL     1     -24.326  -3.156 -23.577  0.00  0.00    +0.040 A 
ATOM     41  C   UNL     1     -23.157  -3.902 -23.540  0.00  0.00    -0.010 A 
ATOM     42  C   UNL     1     -22.799  -4.684 -24.603  0.00  0.00    +0.040 A 
ATOM     43  C   UNL     1     -23.619  -4.737 -25.731  0.00  0.00    -0.100 A 
ENDBRANCH  33  34
ENDBRANCH   1  33
TORSDOF 10
ENDMDL
MODEL 3
REMARK VINA RESULT:      -7.0      2.160      6.404
REMARK  Name = ZINC000001554197
REMARK  12 active torsions:
REMARK  status: ('A' for Active; 'I' for Inactive)
REMARK    1  A    between atoms: C1_1  and  C2_2
REMARK    2  A    between atoms: C2_2  and  C3_3
REMARK    3  A    between atoms: C2_2  and  N4_4
REMARK    4  A    between atoms: C2_2  and  C8_8
REMARK    5  A    between atoms: N10_10  and  C11_11
REMARK    6  A    between atoms: C11_11  and  C13_13
REMARK    7  A    between atoms: C11_11  and  C23_23
REMARK    8  A    between atoms: C13_13  and  C14_14
REMARK    9  A    between atoms: N25_25  and  C26_26
REMARK   10  A    between atoms: C26_26  and  C28_28
REMARK   11  A    between atoms: C26_26  and  N38_38
REMARK   12  A    between atoms: C28_28  and  C29_29
REMARK                            x       y       z     vdW  Elec       q    Type
REMARK                         _______ _______ _______ _____ _____    ______ ____
ROOT
ATOM      1  C   UNL     1      -1.937  13.667 -36.474  0.00  0.00    +0.260 C 
ENDROOT
BRANCH   1   3
ATOM      2  C   UNL     1      -1.961  16.003 -35.782  0.00  0.00    +0.500 C 
ATOM      3  N   UNL     1      -1.349  15.009 -36.455  0.00  0.00    -0.710 N 
ATOM      4  H   UNL     1      -0.520  15.182 -36.929  0.00  0.00    +0.390 HD
ATOM      5  O   UNL     1      -2.998  15.787 -35.191  0.00  0.00    -0.440 OA
BRANCH   2   7
ATOM      6  C   UNL     1      -0.220  17.457 -36.785  0.00  0.00    +0.130 C 
ATOM      7  C   UNL     1      -1.357  17.384 -35.763  0.00  0.00    +0.050 C 
ATOM      8  C   UNL     1      -0.807  17.682 -34.366  0.00  0.00    +0.120 C 
BRANCH   7   9
ATOM      9  N   UNL     1      -2.387  18.373 -36.105  0.00  0.00    -0.630 N 
ATOM     10  H   UNL     1      -2.000  19.056 -36.740  0.00  0.00    +0.440 HD
ATOM     11  H   UNL     1      -2.701  18.835 -35.265  0.00  0.00    +0.430 HD
ATOM     12  H   UNL     1      -3.167  17.908 -36.546  0.00  0.00    +0.440 HD
ENDBRANCH   7   9
ENDBRANCH   2   7
ENDBRANCH   1   3
BRANCH   1  13
ATOM     13  C   UNL     1      -2.206  13.256 -37.899  0.00  0.00    +0.500 C 
ATOM     14  N   UNL     1      -1.214  13.292 -38.810  0.00  0.00    -0.730 N 
ATOM     15  H   UNL     1      -0.326  13.584 -38.548  0.00  0.00    +0.400 HD
ATOM     16  O   UNL     1      -3.316  12.892 -38.226  0.00  0.00    -0.500 OA
BRANCH  14  17
ATOM     17  C   UNL     1      -1.475  12.893 -40.195  0.00  0.00    +0.490 C 
BRANCH  17  18
ATOM     18  N   UNL     1      -1.091  13.981 -41.098  0.00  0.00    -0.730 N 
ATOM     19  H   UNL     1      -0.221  13.972 -41.525  0.00  0.00    +0.400 HD
ATOM     20  C   UNL     1      -1.948  14.994 -41.333  0.00  0.00    +0.630 C 
ATOM     21  O   UNL     1      -3.037  15.006 -40.798  0.00  0.00    -0.530 OA
ENDBRANCH  17  18
BRANCH  17  22
ATOM     22  C   UNL     1      -0.659  11.643 -40.527  0.00  0.00    +0.120 C 
BRANCH  22  23
ATOM     23  C   UNL     1      -1.389  10.420 -40.032  0.00  0.00    -0.180 A 
ATOM     24  C   UNL     1      -2.464   9.848 -40.597  0.00  0.00    +0.240 A 
ATOM     25  N   UNL     1      -2.849   8.757 -39.866  0.00  0.00    -0.590 N 
ATOM     26  H   UNL     1      -3.602   8.182 -40.079  0.00  0.00    +0.420 HD
ATOM     27  C   UNL     1      -2.011   8.596 -38.787  0.00  0.00    +0.090 A 
ATOM     28  C   UNL     1      -1.952   7.672 -37.749  0.00  0.00    -0.010 A 
ATOM     29  C   UNL     1      -0.967   7.780 -36.791  0.00  0.00    +0.030 A 
ATOM     30  C   UNL     1      -0.030   8.802 -36.851  0.00  0.00    -0.020 A 
ATOM     31  C   UNL     1      -0.070   9.721 -37.862  0.00  0.00    +0.040 A 
ATOM     32  C   UNL     1      -1.055   9.628 -38.845  0.00  0.00    -0.090 A 
ENDBRANCH  22  23
ENDBRANCH  17  22
ENDBRANCH  14  17
ENDBRANCH   1  13
BRANCH   1  33
ATOM     33  C   UNL     1      -0.962  12.676 -35.834  0.00  0.00    +0.140 C 
BRANCH  33  34
ATOM     34  C   UNL     1      -0.890  12.929 -34.350  0.00  0.00    -0.170 A 
ATOM     35  C   UNL     1      -1.897  12.809 -33.470  0.00  0.00    +0.210 A 
ATOM     36  N   UNL     1      -1.456  13.120 -32.213  0.00  0.00    -0.590 N 
ATOM     37  H   UNL     1      -2.002  13.106 -31.411  0.00  0.00    +0.420 HD
ATOM     38  C   UNL     1      -0.120  13.456 -32.254  0.00  0.00    +0.100 A 
ATOM     39  C   UNL     1       0.799  13.845 -31.286  0.00  0.00    -0.010 A 
ATOM     40  C   UNL     1       2.099  14.121 -31.650  0.00  0.00    +0.040 A 
ATOM     41  C   UNL     1       2.502  14.016 -32.973  0.00  0.00    -0.010 A 
ATOM     42  C   UNL     1       1.614  13.635 -33.940  0.00  0.00    +0.040 A 
ATOM     43  C   UNL     1       0.294  13.345 -33.593  0.00  0.00    -0.100 A 
ENDBRANCH  33  34
ENDBRANCH   1  33
TORSDOF 10
ENDMDL
MODEL 4
REMARK VINA RESULT:      -6.9     26.929     29.592
REMARK  Name = ZINC000001554197
REMARK  12 active torsions:
REMARK  status: ('A' for Active; 'I' for Inactive)
REMARK    1  A    between atoms: C1_1  and  C2_2
REMARK    2  A    between atoms: C2_2  and  C3_3
REMARK    3  A    between atoms: C2_2  and  N4_4
REMARK    4  A    between atoms: C2_2  and  C8_8
REMARK    5  A    between atoms: N10_10  and  C11_11
REMARK    6  A    between atoms: C11_11  and  C13_13
REMARK    7  A    between atoms: C11_11  and  C23_23
REMARK    8  A    between atoms: C13_13  and  C14_14
REMARK    9  A    between atoms: N25_25  and  C26_26
REMARK   10  A    between atoms: C26_26  and  C28_28
REMARK   11  A    between atoms: C26_26  and  N38_38
REMARK   12  A    between atoms: C28_28  and  C29_29
REMARK                            x       y       z     vdW  Elec       q    Type
REMARK                         _______ _______ _______ _____ _____    ______ ____
ROOT
ATOM      1  C   UNL     1     -20.234  -6.368 -28.420  0.00  0.00    +0.260 C 
ENDROOT
BRANCH   1   3
ATOM      2  C   UNL     1     -18.977  -5.260 -26.650  0.00  0.00    +0.500 C 
ATOM      3  N   UNL     1     -19.435  -6.406 -27.191  0.00  0.00    -0.710 N 
ATOM      4  H   UNL     1     -19.237  -7.256 -26.769  0.00  0.00    +0.390 HD
ATOM      5  O   UNL     1     -19.225  -4.197 -27.180  0.00  0.00    -0.440 OA
BRANCH   2   7
ATOM      6  C   UNL     1     -16.868  -4.498 -25.592  0.00  0.00    +0.130 C 
ATOM      7  C   UNL     1     -18.155  -5.299 -25.387  0.00  0.00    +0.050 C 
ATOM      8  C   UNL     1     -17.805  -6.751 -25.051  0.00  0.00    +0.120 C 
BRANCH   7   9
ATOM      9  N   UNL     1     -18.926  -4.713 -24.284  0.00  0.00    -0.630 N 
ATOM     10  H   UNL     1     -18.811  -5.278 -23.455  0.00  0.00    +0.440 HD
ATOM     11  H   UNL     1     -19.903  -4.682 -24.535  0.00  0.00    +0.430 HD
ATOM     12  H   UNL     1     -18.596  -3.777 -24.102  0.00  0.00    +0.440 HD
ENDBRANCH   7   9
ENDBRANCH   2   7
ENDBRANCH   1   3
BRANCH   1  13
ATOM     13  C   UNL     1     -19.754  -7.440 -29.364  0.00  0.00    +0.500 C 
ATOM     14  N   UNL     1     -20.544  -7.848 -30.377  0.00  0.00    -0.730 N 
ATOM     15  H   UNL     1     -21.422  -7.452 -30.497  0.00  0.00    +0.400 HD
ATOM     16  O   UNL     1     -18.657  -7.935 -29.214  0.00  0.00    -0.500 OA
BRANCH  14  17
ATOM     17  C   UNL     1     -20.078  -8.890 -31.296  0.00  0.00    +0.490 C 
BRANCH  17  18
ATOM     18  N   UNL     1     -20.039 -10.176 -30.596  0.00  0.00    -0.730 N 
ATOM     19  H   UNL     1     -20.760 -10.425 -29.998  0.00  0.00    +0.400 HD
ATOM     20  C   UNL     1     -18.999 -11.013 -30.784  0.00  0.00    +0.630 C 
ATOM     21  O   UNL     1     -18.096 -10.702 -31.532  0.00  0.00    -0.530 OA
ENDBRANCH  17  18
BRANCH  17  22
ATOM     22  C   UNL     1     -21.035  -8.985 -32.485  0.00  0.00    +0.120 C 
BRANCH  22  23
ATOM     23  C   UNL     1     -20.298  -8.635 -33.752  0.00  0.00    -0.180 A 
ATOM     24  C   UNL     1     -19.743  -9.498 -34.618  0.00  0.00    +0.240 A 
ATOM     25  N   UNL     1     -19.161  -8.813 -35.651  0.00  0.00    -0.590 N 
ATOM     26  H   UNL     1     -18.698  -9.222 -36.399  0.00  0.00    +0.420 HD
ATOM     27  C   UNL     1     -19.333  -7.459 -35.471  0.00  0.00    +0.090 A 
ATOM     28  C   UNL     1     -18.951  -6.339 -36.202  0.00  0.00    -0.010 A 
ATOM     29  C   UNL     1     -19.279  -5.080 -35.747  0.00  0.00    +0.030 A 
ATOM     30  C   UNL     1     -19.989  -4.917 -34.567  0.00  0.00    -0.020 A 
ATOM     31  C   UNL     1     -20.375  -6.003 -33.832  0.00  0.00    +0.040 A 
ATOM     32  C   UNL     1     -20.057  -7.288 -34.276  0.00  0.00    -0.090 A 
ENDBRANCH  22  23
ENDBRANCH  17  22
ENDBRANCH  14  17
ENDBRANCH   1  13
BRANCH   1  33
ATOM     33  C   UNL     1     -21.706  -6.611 -28.078  0.00  0.00    +0.140 C 
BRANCH  33  34
ATOM     34  C   UNL     1     -22.486  -5.338 -28.282  0.00  0.00    -0.170 A 
ATOM     35  C   UNL     1     -23.131  -4.637 -27.336  0.00  0.00    +0.210 A 
ATOM     36  N   UNL     1     -23.727  -3.539 -27.894  0.00  0.00    -0.590 N 
ATOM     37  H   UNL     1     -24.249  -2.881 -27.409  0.00  0.00    +0.420 HD
ATOM     38  C   UNL     1     -23.473  -3.506 -29.248  0.00  0.00    +0.100 A 
ATOM     39  C   UNL     1     -23.831  -2.632 -30.268  0.00  0.00    -0.010 A 
ATOM     40  C   UNL     1     -23.411  -2.876 -31.557  0.00  0.00    +0.040 A 
ATOM     41  C   UNL     1     -22.635  -3.987 -31.850  0.00  0.00    -0.010 A 
ATOM     42  C   UNL     1     -22.271  -4.860 -30.863  0.00  0.00    +0.040 A 
ATOM     43  C   UNL     1     -22.680  -4.628 -29.549  0.00  0.00    -0.100 A 
ENDBRANCH  33  34
ENDBRANCH   1  33
TORSDOF 10
ENDMDL
MODEL 5
REMARK VINA RESULT:      -6.8      1.965      6.141
REMARK  Name = ZINC000001554197
REMARK  12 active torsions:
REMARK  status: ('A' for Active; 'I' for Inactive)
REMARK    1  A    between atoms: C1_1  and  C2_2
REMARK    2  A    between atoms: C2_2  and  C3_3
REMARK    3  A    between atoms: C2_2  and  N4_4
REMARK    4  A    between atoms: C2_2  and  C8_8
REMARK    5  A    between atoms: N10_10  and  C11_11
REMARK    6  A    between atoms: C11_11  and  C13_13
REMARK    7  A    between atoms: C11_11  and  C23_23
REMARK    8  A    between atoms: C13_13  and  C14_14
REMARK    9  A    between atoms: N25_25  and  C26_26
REMARK   10  A    between atoms: C26_26  and  C28_28
REMARK   11  A    between atoms: C26_26  and  N38_38
REMARK   12  A    between atoms: C28_28  and  C29_29
REMARK                            x       y       z     vdW  Elec       q    Type
REMARK                         _______ _______ _______ _____ _____    ______ ____
ROOT
ATOM      1  C   UNL     1      -0.540  12.661 -35.695  0.00  0.00    +0.260 C 
ENDROOT
BRANCH   1   3
ATOM      2  C   UNL     1       0.463  13.021 -33.504  0.00  0.00    +0.500 C 
ATOM      3  N   UNL     1      -0.449  12.379 -34.260  0.00  0.00    -0.710 N 
ATOM      4  H   UNL     1      -1.046  11.730 -33.855  0.00  0.00    +0.390 HD
ATOM      5  O   UNL     1       1.209  13.832 -34.012  0.00  0.00    -0.440 OA
BRANCH   2   7
ATOM      6  C   UNL     1      -0.812  12.944 -31.378  0.00  0.00    +0.130 C 
ATOM      7  C   UNL     1       0.557  12.731 -32.028  0.00  0.00    +0.050 C 
ATOM      8  C   UNL     1       1.579  13.674 -31.387  0.00  0.00    +0.120 C 
BRANCH   7   9
ATOM      9  N   UNL     1       0.982  11.340 -31.829  0.00  0.00    -0.630 N 
ATOM     10  H   UNL     1       1.892  11.325 -31.393  0.00  0.00    +0.440 HD
ATOM     11  H   UNL     1       1.030  10.872 -32.722  0.00  0.00    +0.430 HD
ATOM     12  H   UNL     1       0.317  10.866 -31.237  0.00  0.00    +0.440 HD
ENDBRANCH   7   9
ENDBRANCH   2   7
ENDBRANCH   1   3
BRANCH   1  13
ATOM     13  C   UNL     1      -0.357  11.381 -36.471  0.00  0.00    +0.500 C 
ATOM     14  N   UNL     1      -1.251  11.034 -37.418  0.00  0.00    -0.730 N 
ATOM     15  H   UNL     1      -2.013  11.607 -37.599  0.00  0.00    +0.400 HD
ATOM     16  O   UNL     1       0.595  10.665 -36.244  0.00  0.00    -0.500 OA
BRANCH  14  17
ATOM     17  C   UNL     1      -1.073   9.791 -38.172  0.00  0.00    +0.490 C 
BRANCH  17  18
ATOM     18  N   UNL     1      -1.730   8.691 -37.462  0.00  0.00    -0.730 N 
ATOM     19  H   UNL     1      -2.681   8.731 -37.278  0.00  0.00    +0.400 HD
ATOM     20  C   UNL     1      -1.011   7.622 -37.065  0.00  0.00    +0.630 C 
ATOM     21  O   UNL     1       0.179   7.571 -37.294  0.00  0.00    -0.530 OA
ENDBRANCH  17  18
BRANCH  17  22
ATOM     22  C   UNL     1      -1.696   9.944 -39.561  0.00  0.00    +0.120 C 
BRANCH  22  23
ATOM     23  C   UNL     1      -2.736  11.034 -39.527  0.00  0.00    -0.180 A 
ATOM     24  C   UNL     1      -4.050  10.878 -39.296  0.00  0.00    +0.240 A 
ATOM     25  N   UNL     1      -4.679  12.092 -39.344  0.00  0.00    -0.590 N 
ATOM     26  H   UNL     1      -5.630  12.232 -39.208  0.00  0.00    +0.420 HD
ATOM     27  C   UNL     1      -3.764  13.084 -39.612  0.00  0.00    +0.090 A 
ATOM     28  C   UNL     1      -3.863  14.463 -39.766  0.00  0.00    -0.010 A 
ATOM     29  C   UNL     1      -2.734  15.204 -40.040  0.00  0.00    +0.030 A 
ATOM     30  C   UNL     1      -1.496  14.590 -40.163  0.00  0.00    -0.020 A 
ATOM     31  C   UNL     1      -1.376  13.236 -40.016  0.00  0.00    +0.040 A 
ATOM     32  C   UNL     1      -2.505  12.466 -39.734  0.00  0.00    -0.090 A 
ENDBRANCH  22  23
ENDBRANCH  17  22
ENDBRANCH  14  17
ENDBRANCH   1  13
BRANCH   1  33
ATOM     33  C   UNL     1      -1.914  13.256 -36.011  0.00  0.00    +0.140 C 
BRANCH  33  34
ATOM     34  C   UNL     1      -1.883  14.745 -35.776  0.00  0.00    -0.170 A 
ATOM     35  C   UNL     1      -1.373  15.673 -36.601  0.00  0.00    +0.210 A 
ATOM     36  N   UNL     1      -1.526  16.917 -36.053  0.00  0.00    -0.590 N 
ATOM     37  H   UNL     1      -1.235  17.746 -36.465  0.00  0.00    +0.420 HD
ATOM     38  C   UNL     1      -2.154  16.818 -34.832  0.00  0.00    +0.100 A 
ATOM     39  C   UNL     1      -2.543  17.751 -33.876  0.00  0.00    -0.010 A 
ATOM     40  C   UNL     1      -3.168  17.329 -32.724  0.00  0.00    +0.040 A 
ATOM     41  C   UNL     1      -3.414  15.982 -32.504  0.00  0.00    -0.010 A 
ATOM     42  C   UNL     1      -3.040  15.048 -33.429  0.00  0.00    +0.040 A 
ATOM     43  C   UNL     1      -2.411  15.453 -34.607  0.00  0.00    -0.100 A 
ENDBRANCH  33  34
ENDBRANCH   1  33
TORSDOF 10
ENDMDL
MODEL 6
REMARK VINA RESULT:      -6.8      2.606      6.449
REMARK  Name = ZINC000001554197
REMARK  12 active torsions:
REMARK  status: ('A' for Active; 'I' for Inactive)
REMARK    1  A    between atoms: C1_1  and  C2_2
REMARK    2  A    between atoms: C2_2  and  C3_3
REMARK    3  A    between atoms: C2_2  and  N4_4
REMARK    4  A    between atoms: C2_2  and  C8_8
REMARK    5  A    between atoms: N10_10  and  C11_11
REMARK    6  A    between atoms: C11_11  and  C13_13
REMARK    7  A    between atoms: C11_11  and  C23_23
REMARK    8  A    between atoms: C13_13  and  C14_14
REMARK    9  A    between atoms: N25_25  and  C26_26
REMARK   10  A    between atoms: C26_26  and  C28_28
REMARK   11  A    between atoms: C26_26  and  N38_38
REMARK   12  A    between atoms: C28_28  and  C29_29
REMARK                            x       y       z     vdW  Elec       q    Type
REMARK                         _______ _______ _______ _____ _____    ______ ____
ROOT
ATOM      1  C   UNL     1      -0.505  12.628 -35.341  0.00  0.00    +0.260 C 
ENDROOT
BRANCH   1   3
ATOM      2  C   UNL     1      -1.498  14.677 -36.210  0.00  0.00    +0.500 C 
ATOM      3  N   UNL     1      -0.575  13.703 -36.335  0.00  0.00    -0.710 N 
ATOM      4  H   UNL     1       0.043  13.713 -37.083  0.00  0.00    +0.390 HD
ATOM      5  O   UNL     1      -2.271  14.663 -35.276  0.00  0.00    -0.440 OA
BRANCH   2   7
ATOM      6  C   UNL     1      -0.262  15.832 -38.023  0.00  0.00    +0.130 C 
ATOM      7  C   UNL     1      -1.571  15.782 -37.233  0.00  0.00    +0.050 C 
ATOM      8  C   UNL     1      -1.791  17.120 -36.523  0.00  0.00    +0.120 C 
BRANCH   7   9
ATOM      9  N   UNL     1      -2.687  15.525 -38.152  0.00  0.00    -0.630 N 
ATOM     10  H   UNL     1      -3.073  14.611 -37.965  0.00  0.00    +0.440 HD
ATOM     11  H   UNL     1      -2.354  15.561 -39.103  0.00  0.00    +0.430 HD
ATOM     12  H   UNL     1      -3.401  16.225 -38.018  0.00  0.00    +0.440 HD
ENDBRANCH   7   9
ENDBRANCH   2   7
ENDBRANCH   1   3
BRANCH   1  13
ATOM     13  C   UNL     1      -0.317  11.307 -36.043  0.00  0.00    +0.500 C 
ATOM     14  N   UNL     1      -0.885  11.097 -37.247  0.00  0.00    -0.730 N 
ATOM     15  H   UNL     1      -1.415  11.797 -37.661  0.00  0.00    +0.400 HD
ATOM     16  O   UNL     1       0.345  10.434 -35.524  0.00  0.00    -0.500 OA
BRANCH  14  17
ATOM     17  C   UNL     1      -0.703   9.814 -37.929  0.00  0.00    +0.490 C 
BRANCH  17  18
ATOM     18  N   UNL     1      -1.662   8.840 -37.402  0.00  0.00    -0.730 N 
ATOM     19  H   UNL     1      -2.598   9.079 -37.316  0.00  0.00    +0.400 HD
ATOM     20  C   UNL     1      -1.243   7.613 -37.036  0.00  0.00    +0.630 C 
ATOM     21  O   UNL     1      -0.072   7.313 -37.143  0.00  0.00    -0.530 OA
ENDBRANCH  17  18
BRANCH  17  22
ATOM     22  C   UNL     1      -0.935   9.997 -39.429  0.00  0.00    +0.120 C 
BRANCH  22  23
ATOM     23  C   UNL     1      -2.326  10.530 -39.661  0.00  0.00    -0.180 A 
ATOM     24  C   UNL     1      -2.723  11.807 -39.537  0.00  0.00    +0.240 A 
ATOM     25  N   UNL     1      -4.056  11.911 -39.828  0.00  0.00    -0.590 N 
ATOM     26  H   UNL     1      -4.567  12.735 -39.808  0.00  0.00    +0.420 HD
ATOM     27  C   UNL     1      -4.562  10.673 -40.155  0.00  0.00    +0.090 A 
ATOM     28  C   UNL     1      -5.825  10.222 -40.524  0.00  0.00    -0.010 A 
ATOM     29  C   UNL     1      -6.022   8.885 -40.794  0.00  0.00    +0.030 A 
ATOM     30  C   UNL     1      -4.972   7.982 -40.704  0.00  0.00    -0.020 A 
ATOM     31  C   UNL     1      -3.723   8.404 -40.344  0.00  0.00    +0.040 A 
ATOM     32  C   UNL     1      -3.499   9.754 -40.070  0.00  0.00    -0.090 A 
ENDBRANCH  22  23
ENDBRANCH  17  22
ENDBRANCH  14  17
ENDBRANCH   1  13
BRANCH   1  33
ATOM     33  C   UNL     1       0.678  12.879 -34.403  0.00  0.00    +0.140 C 
BRANCH  33  34
ATOM     34  C   UNL     1       0.172  13.074 -32.997  0.00  0.00    -0.170 A 
ATOM     35  C   UNL     1      -0.965  12.578 -32.482  0.00  0.00    +0.210 A 
ATOM     36  N   UNL     1      -1.091  12.963 -31.175  0.00  0.00    -0.590 N 
ATOM     37  H   UNL     1      -1.831  12.727 -30.594  0.00  0.00    +0.420 HD
ATOM     38  C   UNL     1      -0.011  13.735 -30.808  0.00  0.00    +0.100 A 
ATOM     39  C   UNL     1       0.354  14.370 -29.626  0.00  0.00    -0.010 A 
ATOM     40  C   UNL     1       1.528  15.089 -29.570  0.00  0.00    +0.040 A 
ATOM     41  C   UNL     1       2.351  15.188 -30.682  0.00  0.00    -0.010 A 
ATOM     42  C   UNL     1       2.011  14.573 -31.853  0.00  0.00    +0.040 A 
ATOM     43  C   UNL     1       0.830  13.834 -31.931  0.00  0.00    -0.100 A 
ENDBRANCH  33  34
ENDBRANCH   1  33
TORSDOF 10
ENDMDL
MODEL 7
REMARK VINA RESULT:      -6.7      2.050      6.091
REMARK  Name = ZINC000001554197
REMARK  12 active torsions:
REMARK  status: ('A' for Active; 'I' for Inactive)
REMARK    1  A    between atoms: C1_1  and  C2_2
REMARK    2  A    between atoms: C2_2  and  C3_3
REMARK    3  A    between atoms: C2_2  and  N4_4
REMARK    4  A    between atoms: C2_2  and  C8_8
REMARK    5  A    between atoms: N10_10  and  C11_11
REMARK    6  A    between atoms: C11_11  and  C13_13
REMARK    7  A    between atoms: C11_11  and  C23_23
REMARK    8  A    between atoms: C13_13  and  C14_14
REMARK    9  A    between atoms: N25_25  and  C26_26
REMARK   10  A    between atoms: C26_26  and  C28_28
REMARK   11  A    between atoms: C26_26  and  N38_38
REMARK   12  A    between atoms: C28_28  and  C29_29
REMARK                            x       y       z     vdW  Elec       q    Type
REMARK                         _______ _______ _______ _____ _____    ______ ____
ROOT
ATOM      1  C   UNL     1      -0.900  14.078 -35.134  0.00  0.00    +0.260 C 
ENDROOT
BRANCH   1   3
ATOM      2  C   UNL     1      -2.614  14.846 -33.582  0.00  0.00    +0.500 C 
ATOM      3  N   UNL     1      -1.737  15.137 -34.563  0.00  0.00    -0.710 N 
ATOM      4  H   UNL     1      -1.660  16.046 -34.892  0.00  0.00    +0.390 HD
ATOM      5  O   UNL     1      -2.711  13.709 -33.173  0.00  0.00    -0.440 OA
BRANCH   2   7
ATOM      6  C   UNL     1      -3.897  16.904 -34.102  0.00  0.00    +0.130 C 
ATOM      7  C   UNL     1      -3.476  15.935 -32.995  0.00  0.00    +0.050 C 
ATOM      8  C   UNL     1      -2.684  16.692 -31.927  0.00  0.00    +0.120 C 
BRANCH   7   9
ATOM      9  N   UNL     1      -4.672  15.337 -32.387  0.00  0.00    -0.630 N 
ATOM     10  H   UNL     1      -4.419  14.889 -31.519  0.00  0.00    +0.440 HD
ATOM     11  H   UNL     1      -5.062  14.653 -33.017  0.00  0.00    +0.430 HD
ATOM     12  H   UNL     1      -5.354  16.058 -32.208  0.00  0.00    +0.440 HD
ENDBRANCH   7   9
ENDBRANCH   2   7
ENDBRANCH   1   3
BRANCH   1  13
ATOM     13  C   UNL     1      -1.080  14.047 -36.631  0.00  0.00    +0.500 C 
ATOM     14  N   UNL     1      -2.214  13.550 -37.162  0.00  0.00    -0.730 N 
ATOM     15  H   UNL     1      -2.913  13.210 -36.582  0.00  0.00    +0.400 HD
ATOM     16  O   UNL     1      -0.206  14.471 -37.356  0.00  0.00    -0.500 OA
BRANCH  14  17
ATOM     17  C   UNL     1      -2.390  13.520 -38.616  0.00  0.00    +0.490 C 
BRANCH  17  18
ATOM     18  N   UNL     1      -2.178  14.863 -39.162  0.00  0.00    -0.730 N 
ATOM     19  H   UNL     1      -1.329  15.092 -39.570  0.00  0.00    +0.400 HD
ATOM     20  C   UNL     1      -3.163  15.780 -39.095  0.00  0.00    +0.630 C 
ATOM     21  O   UNL     1      -4.226  15.494 -38.583  0.00  0.00    -0.530 OA
ENDBRANCH  17  18
BRANCH  17  22
ATOM     22  C   UNL     1      -1.377  12.554 -39.232  0.00  0.00    +0.120 C 
BRANCH  22  23
ATOM     23  C   UNL     1      -1.901  11.144 -39.132  0.00  0.00    -0.180 A 
ATOM     24  C   UNL     1      -2.942  10.629 -39.806  0.00  0.00    +0.240 A 
ATOM     25  N   UNL     1      -3.122   9.319 -39.455  0.00  0.00    -0.590 N 
ATOM     26  H   UNL     1      -3.812   8.737 -39.810  0.00  0.00    +0.420 HD
ATOM     27  C   UNL     1      -2.178   8.949 -38.524  0.00  0.00    +0.090 A 
ATOM     28  C   UNL     1      -1.913   7.763 -37.846  0.00  0.00    -0.010 A 
ATOM     29  C   UNL     1      -0.869   7.706 -36.949  0.00  0.00    +0.030 A 
ATOM     30  C   UNL     1      -0.076   8.820 -36.712  0.00  0.00    -0.020 A 
ATOM     31  C   UNL     1      -0.319   9.996 -37.366  0.00  0.00    +0.040 A 
ATOM     32  C   UNL     1      -1.368  10.075 -38.284  0.00  0.00    -0.090 A 
ENDBRANCH  22  23
ENDBRANCH  17  22
ENDBRANCH  14  17
ENDBRANCH   1  13
BRANCH   1  33
ATOM     33  C   UNL     1       0.568  14.356 -34.804  0.00  0.00    +0.140 C 
BRANCH  33  34
ATOM     34  C   UNL     1       0.851  13.940 -33.383  0.00  0.00    -0.170 A 
ATOM     35  C   UNL     1       0.988  12.683 -32.932  0.00  0.00    +0.210 A 
ATOM     36  N   UNL     1       1.239  12.695 -31.588  0.00  0.00    -0.590 N 
ATOM     37  H   UNL     1       1.375  11.907 -31.039  0.00  0.00    +0.420 HD
ATOM     38  C   UNL     1       1.273  13.994 -31.129  0.00  0.00    +0.100 A 
ATOM     39  C   UNL     1       1.484  14.562 -29.877  0.00  0.00    -0.010 A 
ATOM     40  C   UNL     1       1.455  15.932 -29.734  0.00  0.00    +0.040 A 
ATOM     41  C   UNL     1       1.216  16.752 -30.827  0.00  0.00    -0.010 A 
ATOM     42  C   UNL     1       1.006  16.215 -32.065  0.00  0.00    +0.040 A 
ATOM     43  C   UNL     1       1.037  14.830 -32.235  0.00  0.00    -0.100 A 
ENDBRANCH  33  34
ENDBRANCH   1  33
TORSDOF 10
ENDMDL
MODEL 8
REMARK VINA RESULT:      -6.6      4.863      8.775
REMARK  Name = ZINC000001554197
REMARK  12 active torsions:
REMARK  status: ('A' for Active; 'I' for Inactive)
REMARK    1  A    between atoms: C1_1  and  C2_2
REMARK    2  A    between atoms: C2_2  and  C3_3
REMARK    3  A    between atoms: C2_2  and  N4_4
REMARK    4  A    between atoms: C2_2  and  C8_8
REMARK    5  A    between atoms: N10_10  and  C11_11
REMARK    6  A    between atoms: C11_11  and  C13_13
REMARK    7  A    between atoms: C11_11  and  C23_23
REMARK    8  A    between atoms: C13_13  and  C14_14
REMARK    9  A    between atoms: N25_25  and  C26_26
REMARK   10  A    between atoms: C26_26  and  C28_28
REMARK   11  A    between atoms: C26_26  and  N38_38
REMARK   12  A    between atoms: C28_28  and  C29_29
REMARK                            x       y       z     vdW  Elec       q    Type
REMARK                         _______ _______ _______ _____ _____    ______ ____
ROOT
ATOM      1  C   UNL     1       1.274  16.728 -29.835  0.00  0.00    +0.260 C 
ENDROOT
BRANCH   1   3
ATOM      2  C   UNL     1       3.221  17.932 -29.000  0.00  0.00    +0.500 C 
ATOM      3  N   UNL     1       1.944  17.966 -29.428  0.00  0.00    -0.710 N 
ATOM      4  H   UNL     1       1.467  18.810 -29.466  0.00  0.00    +0.390 HD
ATOM      5  O   UNL     1       3.816  16.876 -28.952  0.00  0.00    -0.440 OA
BRANCH   2   7
ATOM      6  C   UNL     1       4.875  19.649 -29.683  0.00  0.00    +0.130 C 
ATOM      7  C   UNL     1       3.910  19.205 -28.581  0.00  0.00    +0.050 C 
ATOM      8  C   UNL     1       4.690  18.961 -27.287  0.00  0.00    +0.120 C 
BRANCH   7   9
ATOM      9  N   UNL     1       2.906  20.254 -28.358  0.00  0.00    -0.630 N 
ATOM     10  H   UNL     1       2.112  20.092 -28.960  0.00  0.00    +0.440 HD
ATOM     11  H   UNL     1       3.309  21.154 -28.568  0.00  0.00    +0.430 HD
ATOM     12  H   UNL     1       2.608  20.235 -27.395  0.00  0.00    +0.440 HD
ENDBRANCH   7   9
ENDBRANCH   2   7
ENDBRANCH   1   3
BRANCH   1  13
ATOM     13  C   UNL     1      -0.028  16.592 -29.088  0.00  0.00    +0.500 C 
ATOM     14  N   UNL     1      -0.817  17.670 -28.907  0.00  0.00    -0.730 N 
ATOM     15  H   UNL     1      -0.545  18.533 -29.257  0.00  0.00    +0.400 HD
ATOM     16  O   UNL     1      -0.367  15.513 -28.650  0.00  0.00    -0.500 OA
BRANCH  14  17
ATOM     17  C   UNL     1      -2.083  17.539 -28.181  0.00  0.00    +0.490 C 
BRANCH  17  18
ATOM     18  N   UNL     1      -1.844  17.715 -26.747  0.00  0.00    -0.730 N 
ATOM     19  H   UNL     1      -1.375  18.501 -26.426  0.00  0.00    +0.400 HD
ATOM     20  C   UNL     1      -2.275  16.784 -25.873  0.00  0.00    +0.630 C 
ATOM     21  O   UNL     1      -2.861  15.800 -26.274  0.00  0.00    -0.530 OA
ENDBRANCH  17  18
BRANCH  17  22
ATOM     22  C   UNL     1      -3.063  18.606 -28.670  0.00  0.00    +0.120 C 
BRANCH  22  23
ATOM     23  C   UNL     1      -4.416  17.981 -28.892  0.00  0.00    -0.180 A 
ATOM     24  C   UNL     1      -5.366  17.781 -27.963  0.00  0.00    +0.240 A 
ATOM     25  N   UNL     1      -6.459  17.190 -28.535  0.00  0.00    -0.590 N 
ATOM     26  H   UNL     1      -7.272  16.948 -28.063  0.00  0.00    +0.420 HD
ATOM     27  C   UNL     1      -6.236  16.992 -29.879  0.00  0.00    +0.090 A 
ATOM     28  C   UNL     1      -6.997  16.442 -30.905  0.00  0.00    -0.010 A 
ATOM     29  C   UNL     1      -6.482  16.381 -32.182  0.00  0.00    +0.030 A 
ATOM     30  C   UNL     1      -5.210  16.863 -32.456  0.00  0.00    -0.020 A 
ATOM     31  C   UNL     1      -4.445  17.407 -31.462  0.00  0.00    +0.040 A 
ATOM     32  C   UNL     1      -4.949  17.483 -30.163  0.00  0.00    -0.090 A 
ENDBRANCH  22  23
ENDBRANCH  17  22
ENDBRANCH  14  17
ENDBRANCH   1  13
BRANCH   1  33
ATOM     33  C   UNL     1       0.996  16.770 -31.339  0.00  0.00    +0.140 C 
BRANCH  33  34
ATOM     34  C   UNL     1       0.858  15.365 -31.865  0.00  0.00    -0.170 A 
ATOM     35  C   UNL     1       1.848  14.474 -32.033  0.00  0.00    +0.210 A 
ATOM     36  N   UNL     1       1.343  13.304 -32.530  0.00  0.00    -0.590 N 
ATOM     37  H   UNL     1       1.867  12.513 -32.733  0.00  0.00    +0.420 HD
ATOM     38  C   UNL     1      -0.020  13.415 -32.697  0.00  0.00    +0.100 A 
ATOM     39  C   UNL     1      -1.002  12.546 -33.159  0.00  0.00    -0.010 A 
ATOM     40  C   UNL     1      -2.314  12.961 -33.210  0.00  0.00    +0.040 A 
ATOM     41  C   UNL     1      -2.668  14.240 -32.806  0.00  0.00    -0.010 A 
ATOM     42  C   UNL     1      -1.719  15.111 -32.349  0.00  0.00    +0.040 A 
ATOM     43  C   UNL     1      -0.384  14.709 -32.283  0.00  0.00    -0.100 A 
ENDBRANCH  33  34
ENDBRANCH   1  33
TORSDOF 10
ENDMDL
MODEL 9
REMARK VINA RESULT:      -6.6      2.601      7.457
REMARK  Name = ZINC000001554197
REMARK  12 active torsions:
REMARK  status: ('A' for Active; 'I' for Inactive)
REMARK    1  A    between atoms: C1_1  and  C2_2
REMARK    2  A    between atoms: C2_2  and  C3_3
REMARK    3  A    between atoms: C2_2  and  N4_4
REMARK    4  A    between atoms: C2_2  and  C8_8
REMARK    5  A    between atoms: N10_10  and  C11_11
REMARK    6  A    between atoms: C11_11  and  C13_13
REMARK    7  A    between atoms: C11_11  and  C23_23
REMARK    8  A    between atoms: C13_13  and  C14_14
REMARK    9  A    between atoms: N25_25  and  C26_26
REMARK   10  A    between atoms: C26_26  and  C28_28
REMARK   11  A    between atoms: C26_26  and  N38_38
REMARK   12  A    between atoms: C28_28  and  C29_29
REMARK                            x       y       z     vdW  Elec       q    Type
REMARK                         _______ _______ _______ _____ _____    ______ ____
ROOT
ATOM      1  C   UNL     1      -0.706  12.711 -35.772  0.00  0.00    +0.260 C 
ENDROOT
BRANCH   1   3
ATOM      2  C   UNL     1       0.380  12.988 -33.608  0.00  0.00    +0.500 C 
ATOM      3  N   UNL     1      -0.596  12.416 -34.341  0.00  0.00    -0.710 N 
ATOM      4  H   UNL     1      -1.227  11.810 -33.921  0.00  0.00    +0.390 HD
ATOM      5  O   UNL     1       1.168  13.745 -34.134  0.00  0.00    -0.440 OA
BRANCH   2   7
ATOM      6  C   UNL     1      -0.865  12.904 -31.465  0.00  0.00    +0.130 C 
ATOM      7  C   UNL     1       0.492  12.685 -32.136  0.00  0.00    +0.050 C 
ATOM      8  C   UNL     1       1.531  13.612 -31.502  0.00  0.00    +0.120 C 
BRANCH   7   9
ATOM      9  N   UNL     1       0.908  11.288 -31.955  0.00  0.00    -0.630 N 
ATOM     10  H   UNL     1       0.090  10.704 -31.853  0.00  0.00    +0.440 HD
ATOM     11  H   UNL     1       1.479  11.212 -31.127  0.00  0.00    +0.430 HD
ATOM     12  H   UNL     1       1.438  10.987 -32.758  0.00  0.00    +0.440 HD
ENDBRANCH   7   9
ENDBRANCH   2   7
ENDBRANCH   1   3
BRANCH   1  13
ATOM     13  C   UNL     1      -0.523  11.440 -36.562  0.00  0.00    +0.500 C 
ATOM     14  N   UNL     1      -1.414  11.106 -37.517  0.00  0.00    -0.730 N 
ATOM     15  H   UNL     1      -2.173  11.683 -37.694  0.00  0.00    +0.400 HD
ATOM     16  O   UNL     1       0.426  10.718 -36.339  0.00  0.00    -0.500 OA
BRANCH  14  17
ATOM     17  C   UNL     1      -1.237   9.871 -38.285  0.00  0.00    +0.490 C 
BRANCH  17  18
ATOM     18  N   UNL     1      -1.813   8.747 -37.542  0.00  0.00    -0.730 N 
ATOM     19  H   UNL     1      -2.751   8.757 -37.300  0.00  0.00    +0.400 HD
ATOM     20  C   UNL     1      -1.037   7.701 -37.197  0.00  0.00    +0.630 C 
ATOM     21  O   UNL     1       0.138   7.689 -37.500  0.00  0.00    -0.530 OA
ENDBRANCH  17  18
BRANCH  17  22
ATOM     22  C   UNL     1      -1.942  10.005 -39.635  0.00  0.00    +0.120 C 
BRANCH  22  23
ATOM     23  C   UNL     1      -0.913  10.102 -40.732  0.00  0.00    -0.180 A 
ATOM     24  C   UNL     1       0.383   9.763 -40.643  0.00  0.00    +0.240 A 
ATOM     25  N   UNL     1       1.007   9.988 -41.841  0.00  0.00    -0.590 N 
ATOM     26  H   UNL     1       1.945   9.819 -42.020  0.00  0.00    +0.420 HD
ATOM     27  C   UNL     1       0.105  10.488 -42.752  0.00  0.00    +0.090 A 
ATOM     28  C   UNL     1       0.205  10.881 -44.083  0.00  0.00    -0.010 A 
ATOM     29  C   UNL     1      -0.908  11.355 -44.742  0.00  0.00    +0.030 A 
ATOM     30  C   UNL     1      -2.132  11.444 -44.093  0.00  0.00    -0.020 A 
ATOM     31  C   UNL     1      -2.253  11.065 -42.786  0.00  0.00    +0.040 A 
ATOM     32  C   UNL     1      -1.139  10.577 -42.099  0.00  0.00    -0.090 A 
ENDBRANCH  22  23
ENDBRANCH  17  22
ENDBRANCH  14  17
ENDBRANCH   1  13
BRANCH   1  33
ATOM     33  C   UNL     1      -2.087  13.300 -36.067  0.00  0.00    +0.140 C 
BRANCH  33  34
ATOM     34  C   UNL     1      -2.053  14.792 -35.858  0.00  0.00    -0.170 A 
ATOM     35  C   UNL     1      -1.624  15.711 -36.737  0.00  0.00    +0.210 A 
ATOM     36  N   UNL     1      -1.743  16.963 -36.197  0.00  0.00    -0.590 N 
ATOM     37  H   UNL     1      -1.496  17.788 -36.644  0.00  0.00    +0.420 HD
ATOM     38  C   UNL     1      -2.265  16.877 -34.925  0.00  0.00    +0.100 A 
ATOM     39  C   UNL     1      -2.582  17.821 -33.955  0.00  0.00    -0.010 A 
ATOM     40  C   UNL     1      -3.104  17.412 -32.747  0.00  0.00    +0.040 A 
ATOM     41  C   UNL     1      -3.316  16.066 -32.487  0.00  0.00    -0.010 A 
ATOM     42  C   UNL     1      -3.011  15.121 -33.426  0.00  0.00    +0.040 A 
ATOM     43  C   UNL     1      -2.488  15.514 -34.659  0.00  0.00    -0.100 A 
ENDBRANCH  33  34
ENDBRANCH   1  33
TORSDOF 10
ENDMDL
