@<TRIPOS>MOLECULE
ZINC000100005148
84    88    1     0     0
SMALL
USER_CHARGES
@<TRIPOS>ATOM
1      C1     -0.6200    2.2401   -1.6942 C.3      1 ZINC000100005148    0.0300
2      O2     -0.8695    0.8330   -1.6892 O.3      1 ZINC000100005148   -0.3500
3      C3     -0.6139    0.1696   -0.5421 C.2      1 ZINC000100005148    0.5300
4      O4     -0.1906    0.7711    0.4272 O.2      1 ZINC000100005148   -0.5000
5      C5     -0.8382   -1.2246   -0.4667 C.2      1 ZINC000100005148   -0.2400
6      C6     -2.0931   -1.6815   -0.3136 C.2      1 ZINC000100005148    0.1900
7      C7     -3.2367   -0.7033   -0.2335 C.3      1 ZINC000100005148   -0.1400
8      N8     -2.3448   -3.0237   -0.2299 N.pl3    1 ZINC000100005148   -0.6300
9      C9     -1.3339   -3.8988    0.0607 C.2      1 ZINC000100005148    0.2500
10     C10    -1.6670   -5.2880    0.5403 C.3      1 ZINC000100005148   -0.1200
11     C11    -0.0473   -3.5346   -0.0768 C.2      1 ZINC000100005148   -0.2700
12     C12     0.9719   -4.4624    0.2397 C.2      1 ZINC000100005148    0.5200
13     O13     0.6799   -5.5768    0.6317 O.2      1 ZINC000100005148   -0.5200
14     O14     2.2683   -4.1120    0.1070 O.3      1 ZINC000100005148   -0.3400
15     C15     3.2450   -5.0991    0.4445 C.3      1 ZINC000100005148    0.0700
16     C16     4.6465   -4.5233    0.2321 C.3      1 ZINC000100005148    0.0600
17     N17     4.8534   -3.3897    1.1432 N.3      1 ZINC000100005148   -0.5300
18     C18     6.0922   -2.6699    0.8155 C.3      1 ZINC000100005148    0.0300
19     C19     6.2398   -1.4646    1.7468 C.3      1 ZINC000100005148    0.0000
20     N20     6.2747   -1.9244    3.1413 N.4      1 ZINC000100005148   -0.3800
21     H21     7.0511   -2.5563    3.2676 H        1 ZINC000100005148    0.4100
22     C22     6.4342   -0.7687    4.0339 C.3      1 ZINC000100005148    0.1300
23     C23     6.4700   -1.2402    5.4648 C.ar     1 ZINC000100005148   -0.1300
24     C24     7.1581   -2.3925    5.7958 C.ar     1 ZINC000100005148   -0.1200
25     C25     7.1910   -2.8250    7.1083 C.ar     1 ZINC000100005148   -0.1000
26     C26     6.5361   -2.1050    8.0899 C.ar     1 ZINC000100005148   -0.0900
27     C27     5.8487   -0.9522    7.7591 C.ar     1 ZINC000100005148   -0.1000
28     C28     5.8195   -0.5173    6.4472 C.ar     1 ZINC000100005148   -0.0900
29     C29     7.7212   -0.0558    3.7076 C.ar     1 ZINC000100005148   -0.1300
30     C30     8.8550   -0.7834    3.3976 C.ar     1 ZINC000100005148   -0.1200
31     C31    10.0355   -0.1295    3.0983 C.ar     1 ZINC000100005148   -0.1000
32     C32    10.0822    1.2520    3.1084 C.ar     1 ZINC000100005148   -0.0900
33     C33     8.9482    1.9796    3.4175 C.ar     1 ZINC000100005148   -0.1000
34     C34     7.7666    1.3258    3.7126 C.ar     1 ZINC000100005148   -0.0900
35     C35     5.0210   -2.6198    3.4609 C.3      1 ZINC000100005148    0.0000
36     C36     4.8632   -3.8347    2.5439 C.3      1 ZINC000100005148    0.0200
37     C37     0.3306   -2.1634   -0.5656 C.3      1 ZINC000100005148    0.1000
38     H38     1.1471   -1.7772    0.0447 H        1 ZINC000100005148    0.1000
39     C39     0.7839   -2.2554   -1.9999 C.ar     1 ZINC000100005148   -0.0700
40     C40    -0.0810   -2.7276   -2.9690 C.ar     1 ZINC000100005148   -0.0500
41     C41     0.3349   -2.8120   -4.2849 C.ar     1 ZINC000100005148   -0.1100
42     C42     1.6153   -2.4237   -4.6312 C.ar     1 ZINC000100005148   -0.0500
43     C43     2.4802   -1.9505   -3.6619 C.ar     1 ZINC000100005148   -0.0400
44     N44     3.8516   -1.5351   -4.0328 N.pl3    1 ZINC000100005148    0.0300
45     O45     4.2183   -1.6103   -5.1918 O.2      1 ZINC000100005148   -0.1600
46     O46     4.6136   -1.1182   -3.1788 O.2      1 ZINC000100005148   -0.1700
47     C47     2.0630   -1.8621   -2.3472 C.ar     1 ZINC000100005148   -0.0400
48     H48    -0.8664    2.6493   -2.6740 H        1 ZINC000100005148    0.1100
49     H49    -1.2359    2.7210   -0.9343 H        1 ZINC000100005148    0.0600
50     H50     0.4325    2.4232   -1.4782 H        1 ZINC000100005148    0.0600
51     H51    -3.5651   -0.4452   -1.2403 H        1 ZINC000100005148    0.1000
52     H52    -4.0638   -1.1554    0.3137 H        1 ZINC000100005148    0.0900
53     H53    -2.9082    0.1981    0.2839 H        1 ZINC000100005148    0.0900
54     H54    -3.2440   -3.3564   -0.3770 H        1 ZINC000100005148    0.4300
55     H55    -2.7496   -5.4052    0.5907 H        1 ZINC000100005148    0.0700
56     H56    -1.2542   -6.0206   -0.1532 H        1 ZINC000100005148    0.1000
57     H57    -1.2383   -5.4432    1.5304 H        1 ZINC000100005148    0.1100
58     H58     3.1248   -5.3868    1.4890 H        1 ZINC000100005148    0.0700
59     H59     3.1116   -5.9744   -0.1912 H        1 ZINC000100005148    0.0800
60     H60     5.3904   -5.2935    0.4357 H        1 ZINC000100005148    0.0700
61     H61     4.7475   -4.1840   -0.7988 H        1 ZINC000100005148    0.1000
62     H62     6.9451   -3.3362    0.9451 H        1 ZINC000100005148    0.0600
63     H63     6.0514   -2.3277   -0.2185 H        1 ZINC000100005148    0.1300
64     H64     7.1653   -0.9374    1.5148 H        1 ZINC000100005148    0.1400
65     H65     5.3937   -0.7918    1.6071 H        1 ZINC000100005148    0.1400
66     H66     5.5958   -0.0857    3.8973 H        1 ZINC000100005148    0.1500
67     H67     7.6698   -2.9550    5.0289 H        1 ZINC000100005148    0.1100
68     H68     7.7280   -3.7257    7.3668 H        1 ZINC000100005148    0.1300
69     H69     6.5611   -2.4433    9.1153 H        1 ZINC000100005148    0.1400
70     H70     5.3368   -0.3898    8.5259 H        1 ZINC000100005148    0.1400
71     H71     5.2825    0.3834    6.1887 H        1 ZINC000100005148    0.1300
72     H72     8.8185   -1.8628    3.3897 H        1 ZINC000100005148    0.1100
73     H73    10.9215   -0.6980    2.8568 H        1 ZINC000100005148    0.1300
74     H74    11.0047    1.7629    2.8752 H        1 ZINC000100005148    0.1400
75     H75     8.9848    3.0590    3.4257 H        1 ZINC000100005148    0.1400
76     H76     6.8806    1.8943    3.9541 H        1 ZINC000100005148    0.1300
77     H77     5.0427   -2.9491    4.4997 H        1 ZINC000100005148    0.1400
78     H78     4.1811   -1.9411    3.3125 H        1 ZINC000100005148    0.1400
79     H79     3.9257   -4.3423    2.7708 H        1 ZINC000100005148    0.1200
80     H80     5.6958   -4.5202    2.7020 H        1 ZINC000100005148    0.0600
81     H81    -1.0815   -3.0310   -2.6984 H        1 ZINC000100005148    0.1300
82     H82    -0.3407   -3.1816   -5.0420 H        1 ZINC000100005148    0.1500
83     H83     1.9404   -2.4903   -5.6590 H        1 ZINC000100005148    0.1500
84     H84     2.7386   -1.4924   -1.5900 H        1 ZINC000100005148    0.1500
@<TRIPOS>BOND
1     1     2     1
2     1     48    1
3     1     49    1
4     1     50    1
5     2     3     1
6     3     4     2
7     3     5     1
8     5     37    1
9     5     6     2
10    6     7     1
11    6     8     1
12    7     51    1
13    7     52    1
14    7     53    1
15    8     9     1
16    8     54    1
17    9     10    1
18    9     11    2
19    10    55    1
20    10    56    1
21    10    57    1
22    11    12    1
23    11    37    1
24    12    13    2
25    12    14    1
26    14    15    1
27    15    16    1
28    15    58    1
29    15    59    1
30    16    17    1
31    16    60    1
32    16    61    1
33    17    36    1
34    17    18    1
35    18    19    1
36    18    62    1
37    18    63    1
38    19    20    1
39    19    64    1
40    19    65    1
41    20    21    1
42    20    22    1
43    20    35    1
44    22    23    1
45    22    29    1
46    22    66    1
47    23    28    ar
48    23    24    ar
49    24    25    ar
50    24    67    1
51    25    26    ar
52    25    68    1
53    26    27    ar
54    26    69    1
55    27    28    ar
56    27    70    1
57    28    71    1
58    29    34    ar
59    29    30    ar
60    30    31    ar
61    30    72    1
62    31    32    ar
63    31    73    1
64    32    33    ar
65    32    74    1
66    33    34    ar
67    33    75    1
68    34    76    1
69    35    36    1
70    35    77    1
71    35    78    1
72    36    79    1
73    36    80    1
74    37    38    1
75    37    39    1
76    39    47    ar
77    39    40    ar
78    40    41    ar
79    40    81    1
80    41    42    ar
81    41    82    1
82    42    43    ar
83    42    83    1
84    43    44    1
85    43    47    ar
86    44    45    2
87    44    46    2
88    47    84    1
@<TRIPOS>SUBSTRUCTURE
1   ZINC000100005148 1     RESIDUE    1   A     ZIN   1
