MODEL 1
REMARK VINA RESULT:      -7.9      0.000      0.000
REMARK  Name = ZINC000100005148
REMARK  15 active torsions:
REMARK  status: ('A' for Active; 'I' for Inactive)
REMARK    1  A    between atoms: C1_1  and  O2_2
REMARK    2  A    between atoms: O2_2  and  C3_3
REMARK    3  A    between atoms: C3_3  and  C5_5
REMARK    4  A    between atoms: C6_6  and  C7_7
REMARK    5  A    between atoms: C9_9  and  C10_10
REMARK    6  A    between atoms: C11_11  and  C12_12
REMARK    7  A    between atoms: C12_12  and  O14_14
REMARK    8  A    between atoms: O14_14  and  C15_15
REMARK    9  A    between atoms: C15_15  and  C16_16
REMARK   10  A    between atoms: C16_16  and  N17_17
REMARK   11  A    between atoms: N20_20  and  C22_22
REMARK   12  A    between atoms: C22_22  and  C23_23
REMARK   13  A    between atoms: C22_22  and  C29_29
REMARK   14  A    between atoms: C37_37  and  C39_39
REMARK   15  A    between atoms: C43_43  and  N44_44
REMARK                            x       y       z     vdW  Elec       q    Type
REMARK                         _______ _______ _______ _____ _____    ______ ____
ROOT
ATOM      1  C   UNL     1      -6.666  19.902 -28.665  0.00  0.00    +0.520 C 
ATOM      2  O   UNL     1      -7.416  20.768 -29.078  0.00  0.00    -0.520 OA
ENDROOT
BRANCH   1   8
ATOM      3  C   UNL     1      -6.193  19.914 -24.920  0.00  0.00    -0.240 C 
ATOM      4  C   UNL     1      -5.063  20.640 -24.881  0.00  0.00    +0.190 C 
ATOM      5  N   UNL     1      -4.358  20.900 -26.026  0.00  0.00    -0.630 N 
ATOM      6  H   UNL     1      -3.435  21.192 -25.968  0.00  0.00    +0.430 HD
ATOM      7  C   UNL     1      -4.951  20.751 -27.250  0.00  0.00    +0.250 C 
ATOM      8  C   UNL     1      -6.077  20.029 -27.387  0.00  0.00    -0.270 C 
ATOM      9  C   UNL     1      -4.333  21.402 -28.460  0.00  0.00    +0.160 C 
ATOM     10  C   UNL     1      -4.564  21.174 -23.563  0.00  0.00    +0.140 C 
ATOM     11  C   UNL     1      -6.720  19.350 -26.208  0.00  0.00    +0.200 C 
BRANCH  11  12
ATOM     12  C   UNL     1      -6.429  17.872 -26.268  0.00  0.00    -0.070 A 
ATOM     13  C   UNL     1      -7.446  16.978 -26.544  0.00  0.00    +0.080 A 
ATOM     14  C   UNL     1      -7.179  15.623 -26.599  0.00  0.00    +0.040 A 
ATOM     15  C   UNL     1      -5.896  15.162 -26.377  0.00  0.00    +0.100 A 
ATOM     16  C   UNL     1      -4.878  16.057 -26.102  0.00  0.00    -0.040 A 
ATOM     17  C   UNL     1      -5.144  17.412 -26.051  0.00  0.00    +0.110 A 
BRANCH  16  18
ATOM     18  N   UNL     1      -3.502  15.563 -25.863  0.00  0.00    +0.030 N 
ATOM     19  O   UNL     1      -2.586  15.947 -26.569  0.00  0.00    -0.170 OA
ATOM     20  O   UNL     1      -3.288  14.772 -24.963  0.00  0.00    -0.160 OA
ENDBRANCH  16  18
ENDBRANCH  11  12
BRANCH   3  21
ATOM     21  C   UNL     1      -6.900  19.672 -23.718  0.00  0.00    +0.530 C 
ATOM     22  O   UNL     1      -6.617  18.710 -23.029  0.00  0.00    -0.500 OA
BRANCH  21  24
ATOM     23  C   UNL     1      -7.792  21.072 -22.028  0.00  0.00    +0.260 C 
ATOM     24  O   UNL     1      -7.889  20.507 -23.337  0.00  0.00    -0.350 OA
ENDBRANCH  21  24
ENDBRANCH   3  21
ENDBRANCH   1   8
BRANCH   1  25
ATOM     25  O   UNL     1      -6.397  18.823 -29.428  0.00  0.00    -0.340 OA
BRANCH  25  26
ATOM     26  C   UNL     1      -5.950  19.067 -30.764  0.00  0.00    +0.220 C 
BRANCH  26  27
ATOM     27  C   UNL     1      -5.714  17.733 -31.474  0.00  0.00    +0.230 C 
BRANCH  27  28
ATOM     28  N   UNL     1      -4.298  17.620 -31.846  0.00  0.00    -0.530 NA
ATOM     29  C   UNL     1      -4.037  16.358 -32.552  0.00  0.00    +0.220 C 
ATOM     30  C   UNL     1      -2.567  16.306 -32.974  0.00  0.00    +0.280 C 
ATOM     31  N   UNL     1      -1.712  16.406 -31.786  0.00  0.00    -0.380 N 
ATOM     32  C   UNL     1      -1.966  17.683 -31.104  0.00  0.00    +0.280 C 
ATOM     33  H   UNL     1      -1.918  15.644 -31.157  0.00  0.00    +0.410 HD
ATOM     34  C   UNL     1      -3.431  17.746 -30.666  0.00  0.00    +0.200 C 
BRANCH  31  35
ATOM     35  C   UNL     1      -0.302  16.340 -32.189  0.00  0.00    +0.280 C 
BRANCH  35  36
ATOM     36  C   UNL     1       0.184  14.917 -32.084  0.00  0.00    -0.130 A 
ATOM     37  C   UNL     1       1.427  14.572 -32.580  0.00  0.00    -0.010 A 
ATOM     38  C   UNL     1       1.873  13.267 -32.484  0.00  0.00    +0.030 A 
ATOM     39  C   UNL     1       1.075  12.307 -31.890  0.00  0.00    +0.050 A 
ATOM     40  C   UNL     1      -0.168  12.651 -31.393  0.00  0.00    +0.040 A 
ATOM     41  C   UNL     1      -0.611  13.957 -31.486  0.00  0.00    +0.040 A 
ENDBRANCH  35  36
BRANCH  35  42
ATOM     42  C   UNL     1       0.523  17.219 -31.284  0.00  0.00    -0.130 A 
ATOM     43  C   UNL     1       1.047  18.405 -31.764  0.00  0.00    -0.010 A 
ATOM     44  C   UNL     1       1.803  19.212 -30.934  0.00  0.00    +0.030 A 
ATOM     45  C   UNL     1       2.036  18.832 -29.626  0.00  0.00    +0.050 A 
ATOM     46  C   UNL     1       1.512  17.646 -29.146  0.00  0.00    +0.040 A 
ATOM     47  C   UNL     1       0.752  16.841 -29.974  0.00  0.00    +0.040 A 
ENDBRANCH  35  42
ENDBRANCH  31  35
ENDBRANCH  27  28
ENDBRANCH  26  27
ENDBRANCH  25  26
ENDBRANCH   1  25
TORSDOF 12
ENDMDL
MODEL 2
REMARK VINA RESULT:      -7.8      6.164      9.391
REMARK  Name = ZINC000100005148
REMARK  15 active torsions:
REMARK  status: ('A' for Active; 'I' for Inactive)
REMARK    1  A    between atoms: C1_1  and  O2_2
REMARK    2  A    between atoms: O2_2  and  C3_3
REMARK    3  A    between atoms: C3_3  and  C5_5
REMARK    4  A    between atoms: C6_6  and  C7_7
REMARK    5  A    between atoms: C9_9  and  C10_10
REMARK    6  A    between atoms: C11_11  and  C12_12
REMARK    7  A    between atoms: C12_12  and  O14_14
REMARK    8  A    between atoms: O14_14  and  C15_15
REMARK    9  A    between atoms: C15_15  and  C16_16
REMARK   10  A    between atoms: C16_16  and  N17_17
REMARK   11  A    between atoms: N20_20  and  C22_22
REMARK   12  A    between atoms: C22_22  and  C23_23
REMARK   13  A    between atoms: C22_22  and  C29_29
REMARK   14  A    between atoms: C37_37  and  C39_39
REMARK   15  A    between atoms: C43_43  and  N44_44
REMARK                            x       y       z     vdW  Elec       q    Type
REMARK                         _______ _______ _______ _____ _____    ______ ____
ROOT
ATOM      1  C   UNL     1      -1.136  17.717 -34.064  0.00  0.00    +0.520 C 
ATOM      2  O   UNL     1      -2.231  18.211 -34.259  0.00  0.00    -0.520 OA
ENDROOT
BRANCH   1   8
ATOM      3  C   UNL     1      -0.344  17.361 -30.389  0.00  0.00    -0.240 C 
ATOM      4  C   UNL     1       0.462  18.430 -30.273  0.00  0.00    +0.190 C 
ATOM      5  N   UNL     1       0.922  19.086 -31.383  0.00  0.00    -0.630 N 
ATOM      6  H   UNL     1       1.687  19.676 -31.312  0.00  0.00    +0.430 HD
ATOM      7  C   UNL     1       0.305  18.911 -32.592  0.00  0.00    +0.250 C 
ATOM      8  C   UNL     1      -0.509  17.862 -32.805  0.00  0.00    -0.270 C 
ATOM      9  C   UNL     1       0.541  19.906 -33.699  0.00  0.00    +0.160 C 
ATOM     10  C   UNL     1       0.867  18.913 -28.903  0.00  0.00    +0.140 C 
ATOM     11  C   UNL     1      -0.762  16.836 -31.733  0.00  0.00    +0.200 C 
BRANCH  11  12
ATOM     12  C   UNL     1       0.016  15.585 -32.050  0.00  0.00    -0.070 A 
ATOM     13  C   UNL     1       1.378  15.541 -31.817  0.00  0.00    +0.080 A 
ATOM     14  C   UNL     1       2.092  14.393 -32.108  0.00  0.00    +0.040 A 
ATOM     15  C   UNL     1       1.444  13.291 -32.632  0.00  0.00    +0.100 A 
ATOM     16  C   UNL     1       0.081  13.335 -32.864  0.00  0.00    -0.040 A 
ATOM     17  C   UNL     1      -0.633  14.481 -32.569  0.00  0.00    +0.110 A 
BRANCH  16  18
ATOM     18  N   UNL     1      -0.612  12.154 -33.426  0.00  0.00    +0.030 N 
ATOM     19  O   UNL     1      -1.829  12.134 -33.487  0.00  0.00    -0.170 OA
ATOM     20  O   UNL     1       0.033  11.202 -33.826  0.00  0.00    -0.160 OA
ENDBRANCH  16  18
ENDBRANCH  11  12
BRANCH   3  21
ATOM     21  C   UNL     1      -0.806  16.713 -29.220  0.00  0.00    +0.530 C 
ATOM     22  O   UNL     1      -0.207  15.750 -28.781  0.00  0.00    -0.500 OA
BRANCH  21  24
ATOM     23  C   UNL     1      -1.835  17.313 -27.172  0.00  0.00    +0.260 C 
ATOM     24  O   UNL     1      -1.912  17.164 -28.591  0.00  0.00    -0.350 OA
ENDBRANCH  21  24
ENDBRANCH   3  21
ENDBRANCH   1   8
BRANCH   1  25
ATOM     25  O   UNL     1      -0.520  17.032 -35.050  0.00  0.00    -0.340 OA
BRANCH  25  26
ATOM     26  C   UNL     1      -1.245  15.950 -35.639  0.00  0.00    +0.220 C 
BRANCH  26  27
ATOM     27  C   UNL     1      -0.985  15.925 -37.147  0.00  0.00    +0.230 C 
BRANCH  27  28
ATOM     28  N   UNL     1      -1.489  14.665 -37.709  0.00  0.00    -0.530 NA
ATOM     29  C   UNL     1      -1.075  13.518 -36.887  0.00  0.00    +0.220 C 
ATOM     30  C   UNL     1      -1.669  12.235 -37.472  0.00  0.00    +0.280 C 
ATOM     31  N   UNL     1      -1.201  12.063 -38.852  0.00  0.00    -0.380 N 
ATOM     32  C   UNL     1      -1.642  13.203 -39.667  0.00  0.00    +0.280 C 
ATOM     33  H   UNL     1      -0.193  12.013 -38.863  0.00  0.00    +0.410 HD
ATOM     34  C   UNL     1      -1.049  14.495 -39.101  0.00  0.00    +0.200 C 
BRANCH  31  35
ATOM     35  C   UNL     1      -1.757  10.822 -39.408  0.00  0.00    +0.280 C 
BRANCH  35  36
ATOM     36  C   UNL     1      -1.274   9.648 -38.595  0.00  0.00    -0.130 A 
ATOM     37  C   UNL     1       0.053   9.567 -38.218  0.00  0.00    -0.010 A 
ATOM     38  C   UNL     1       0.497   8.491 -37.472  0.00  0.00    +0.030 A 
ATOM     39  C   UNL     1      -0.388   7.495 -37.103  0.00  0.00    +0.050 A 
ATOM     40  C   UNL     1      -1.716   7.575 -37.480  0.00  0.00    +0.040 A 
ATOM     41  C   UNL     1      -2.160   8.654 -38.222  0.00  0.00    +0.040 A 
ENDBRANCH  35  36
BRANCH  35  42
ATOM     42  C   UNL     1      -1.305  10.663 -40.837  0.00  0.00    -0.130 A 
ATOM     43  C   UNL     1      -2.219  10.318 -41.816  0.00  0.00    -0.010 A 
ATOM     44  C   UNL     1      -1.805  10.172 -43.126  0.00  0.00    +0.030 A 
ATOM     45  C   UNL     1      -0.477  10.371 -43.458  0.00  0.00    +0.050 A 
ATOM     46  C   UNL     1       0.435  10.717 -42.479  0.00  0.00    +0.040 A 
ATOM     47  C   UNL     1       0.021  10.867 -41.169  0.00  0.00    +0.040 A 
ENDBRANCH  35  42
ENDBRANCH  31  35
ENDBRANCH  27  28
ENDBRANCH  26  27
ENDBRANCH  25  26
ENDBRANCH   1  25
TORSDOF 12
ENDMDL
MODEL 3
REMARK VINA RESULT:      -7.6      0.780      2.823
REMARK  Name = ZINC000100005148
REMARK  15 active torsions:
REMARK  status: ('A' for Active; 'I' for Inactive)
REMARK    1  A    between atoms: C1_1  and  O2_2
REMARK    2  A    between atoms: O2_2  and  C3_3
REMARK    3  A    between atoms: C3_3  and  C5_5
REMARK    4  A    between atoms: C6_6  and  C7_7
REMARK    5  A    between atoms: C9_9  and  C10_10
REMARK    6  A    between atoms: C11_11  and  C12_12
REMARK    7  A    between atoms: C12_12  and  O14_14
REMARK    8  A    between atoms: O14_14  and  C15_15
REMARK    9  A    between atoms: C15_15  and  C16_16
REMARK   10  A    between atoms: C16_16  and  N17_17
REMARK   11  A    between atoms: N20_20  and  C22_22
REMARK   12  A    between atoms: C22_22  and  C23_23
REMARK   13  A    between atoms: C22_22  and  C29_29
REMARK   14  A    between atoms: C37_37  and  C39_39
REMARK   15  A    between atoms: C43_43  and  N44_44
REMARK                            x       y       z     vdW  Elec       q    Type
REMARK                         _______ _______ _______ _____ _____    ______ ____
ROOT
ATOM      1  C   UNL     1      -6.538  19.713 -28.890  0.00  0.00    +0.520 C 
ATOM      2  O   UNL     1      -7.351  20.511 -29.318  0.00  0.00    -0.520 OA
ENDROOT
BRANCH   1   8
ATOM      3  C   UNL     1      -6.160  19.881 -25.138  0.00  0.00    -0.240 C 
ATOM      4  C   UNL     1      -5.030  20.608 -25.101  0.00  0.00    +0.190 C 
ATOM      5  N   UNL     1      -4.296  20.820 -26.237  0.00  0.00    -0.630 N 
ATOM      6  H   UNL     1      -3.375  21.114 -26.168  0.00  0.00    +0.430 HD
ATOM      7  C   UNL     1      -4.858  20.620 -27.469  0.00  0.00    +0.250 C 
ATOM      8  C   UNL     1      -5.981  19.893 -27.604  0.00  0.00    -0.270 C 
ATOM      9  C   UNL     1      -4.209  21.220 -28.689  0.00  0.00    +0.160 C 
ATOM     10  C   UNL     1      -4.564  21.196 -23.794  0.00  0.00    +0.140 C 
ATOM     11  C   UNL     1      -6.654  19.263 -26.414  0.00  0.00    +0.200 C 
BRANCH  11  12
ATOM     12  C   UNL     1      -6.363  17.785 -26.405  0.00  0.00    -0.070 A 
ATOM     13  C   UNL     1      -7.380  16.879 -26.646  0.00  0.00    +0.080 A 
ATOM     14  C   UNL     1      -7.112  15.522 -26.638  0.00  0.00    +0.040 A 
ATOM     15  C   UNL     1      -5.830  15.072 -26.388  0.00  0.00    +0.100 A 
ATOM     16  C   UNL     1      -4.814  15.978 -26.148  0.00  0.00    -0.040 A 
ATOM     17  C   UNL     1      -5.080  17.334 -26.160  0.00  0.00    +0.110 A 
BRANCH  16  18
ATOM     18  N   UNL     1      -3.440  15.495 -25.879  0.00  0.00    +0.030 N 
ATOM     19  O   UNL     1      -2.497  15.977 -26.481  0.00  0.00    -0.170 OA
ATOM     20  O   UNL     1      -3.254  14.617 -25.057  0.00  0.00    -0.160 OA
ENDBRANCH  16  18
ENDBRANCH  11  12
BRANCH   3  21
ATOM     21  C   UNL     1      -6.897  19.689 -23.945  0.00  0.00    +0.530 C 
ATOM     22  O   UNL     1      -6.677  18.720 -23.243  0.00  0.00    -0.500 OA
BRANCH  21  24
ATOM     23  C   UNL     1      -7.852  21.006 -22.223  0.00  0.00    +0.260 C 
ATOM     24  O   UNL     1      -7.844  20.581 -23.588  0.00  0.00    -0.350 OA
ENDBRANCH  21  24
ENDBRANCH   3  21
ENDBRANCH   1   8
BRANCH   1  25
ATOM     25  O   UNL     1      -6.167  18.658 -29.645  0.00  0.00    -0.340 OA
BRANCH  25  26
ATOM     26  C   UNL     1      -5.570  18.943 -30.911  0.00  0.00    +0.220 C 
BRANCH  26  27
ATOM     27  C   UNL     1      -5.301  17.634 -31.655  0.00  0.00    +0.230 C 
BRANCH  27  28
ATOM     28  N   UNL     1      -4.002  17.091 -31.238  0.00  0.00    -0.530 NA
ATOM     29  C   UNL     1      -3.075  18.170 -30.866  0.00  0.00    +0.220 C 
ATOM     30  C   UNL     1      -1.757  17.563 -30.382  0.00  0.00    +0.280 C 
ATOM     31  N   UNL     1      -1.174  16.741 -31.450  0.00  0.00    -0.380 N 
ATOM     32  C   UNL     1      -2.100  15.653 -31.794  0.00  0.00    +0.280 C 
ATOM     33  H   UNL     1      -1.012  17.313 -32.264  0.00  0.00    +0.410 HD
ATOM     34  C   UNL     1      -3.421  16.245 -32.290  0.00  0.00    +0.200 C 
BRANCH  31  35
ATOM     35  C   UNL     1       0.099  16.171 -30.991  0.00  0.00    +0.280 C 
BRANCH  35  36
ATOM     36  C   UNL     1       1.067  17.286 -30.686  0.00  0.00    -0.130 A 
ATOM     37  C   UNL     1       1.803  17.263 -29.517  0.00  0.00    -0.010 A 
ATOM     38  C   UNL     1       2.691  18.284 -29.237  0.00  0.00    +0.030 A 
ATOM     39  C   UNL     1       2.843  19.330 -30.128  0.00  0.00    +0.050 A 
ATOM     40  C   UNL     1       2.108  19.354 -31.299  0.00  0.00    +0.040 A 
ATOM     41  C   UNL     1       1.223  18.330 -31.580  0.00  0.00    +0.040 A 
ENDBRANCH  35  36
BRANCH  35  42
ATOM     42  C   UNL     1       0.674  15.289 -32.069  0.00  0.00    -0.130 A 
ATOM     43  C   UNL     1       0.084  15.252 -33.319  0.00  0.00    -0.010 A 
ATOM     44  C   UNL     1       0.611  14.443 -34.308  0.00  0.00    +0.030 A 
ATOM     45  C   UNL     1       1.727  13.670 -34.047  0.00  0.00    +0.050 A 
ATOM     46  C   UNL     1       2.317  13.708 -32.798  0.00  0.00    +0.040 A 
ATOM     47  C   UNL     1       1.793  14.520 -31.809  0.00  0.00    +0.040 A 
ENDBRANCH  35  42
ENDBRANCH  31  35
ENDBRANCH  27  28
ENDBRANCH  26  27
ENDBRANCH  25  26
ENDBRANCH   1  25
TORSDOF 12
ENDMDL
MODEL 4
REMARK VINA RESULT:      -7.5      6.424     10.130
REMARK  Name = ZINC000100005148
REMARK  15 active torsions:
REMARK  status: ('A' for Active; 'I' for Inactive)
REMARK    1  A    between atoms: C1_1  and  O2_2
REMARK    2  A    between atoms: O2_2  and  C3_3
REMARK    3  A    between atoms: C3_3  and  C5_5
REMARK    4  A    between atoms: C6_6  and  C7_7
REMARK    5  A    between atoms: C9_9  and  C10_10
REMARK    6  A    between atoms: C11_11  and  C12_12
REMARK    7  A    between atoms: C12_12  and  O14_14
REMARK    8  A    between atoms: O14_14  and  C15_15
REMARK    9  A    between atoms: C15_15  and  C16_16
REMARK   10  A    between atoms: C16_16  and  N17_17
REMARK   11  A    between atoms: N20_20  and  C22_22
REMARK   12  A    between atoms: C22_22  and  C23_23
REMARK   13  A    between atoms: C22_22  and  C29_29
REMARK   14  A    between atoms: C37_37  and  C39_39
REMARK   15  A    between atoms: C43_43  and  N44_44
REMARK                            x       y       z     vdW  Elec       q    Type
REMARK                         _______ _______ _______ _____ _____    ______ ____
ROOT
ATOM      1  C   UNL     1      -0.643  15.546 -36.031  0.00  0.00    +0.520 C 
ATOM      2  O   UNL     1       0.287  15.261 -36.763  0.00  0.00    -0.520 OA
ENDROOT
BRANCH   1   8
ATOM      3  C   UNL     1      -0.320  15.299 -32.278  0.00  0.00    -0.240 C 
ATOM      4  C   UNL     1      -0.385  13.960 -32.177  0.00  0.00    +0.190 C 
ATOM      5  N   UNL     1      -0.764  13.195 -33.247  0.00  0.00    -0.630 N 
ATOM      6  H   UNL     1      -1.054  12.281 -33.108  0.00  0.00    +0.430 HD
ATOM      7  C   UNL     1      -0.733  13.715 -34.513  0.00  0.00    +0.250 C 
ATOM      8  C   UNL     1      -0.682  15.044 -34.710  0.00  0.00    -0.270 C 
ATOM      9  C   UNL     1      -0.758  12.787 -35.699  0.00  0.00    +0.160 C 
ATOM     10  C   UNL     1      -0.039  13.293 -30.871  0.00  0.00    +0.140 C 
ATOM     11  C   UNL     1      -0.670  16.008 -33.555  0.00  0.00    +0.200 C 
BRANCH  11  12
ATOM     12  C   UNL     1      -2.030  16.642 -33.423  0.00  0.00    -0.070 A 
ATOM     13  C   UNL     1      -2.203  17.977 -33.737  0.00  0.00    +0.080 A 
ATOM     14  C   UNL     1      -3.452  18.558 -33.616  0.00  0.00    +0.040 A 
ATOM     15  C   UNL     1      -4.526  17.805 -33.182  0.00  0.00    +0.100 A 
ATOM     16  C   UNL     1      -4.353  16.469 -32.870  0.00  0.00    -0.040 A 
ATOM     17  C   UNL     1      -3.106  15.887 -32.994  0.00  0.00    +0.110 A 
BRANCH  16  18
ATOM     18  N   UNL     1      -5.504  15.663 -32.404  0.00  0.00    +0.030 N 
ATOM     19  O   UNL     1      -6.637  15.981 -32.717  0.00  0.00    -0.170 OA
ATOM     20  O   UNL     1      -5.317  14.681 -31.708  0.00  0.00    -0.160 OA
ENDBRANCH  16  18
ENDBRANCH  11  12
BRANCH   3  21
ATOM     21  C   UNL     1       0.083  16.057 -31.153  0.00  0.00    +0.530 C 
ATOM     22  O   UNL     1       1.221  16.479 -31.080  0.00  0.00    -0.500 OA
BRANCH  21  24
ATOM     23  C   UNL     1      -0.263  16.814 -28.935  0.00  0.00    +0.260 C 
ATOM     24  O   UNL     1      -0.797  16.312 -30.162  0.00  0.00    -0.350 OA
ENDBRANCH  21  24
ENDBRANCH   3  21
ENDBRANCH   1   8
BRANCH   1  25
ATOM     25  O   UNL     1      -1.637  16.340 -36.481  0.00  0.00    -0.340 OA
BRANCH  25  26
ATOM     26  C   UNL     1      -2.882  15.709 -36.789  0.00  0.00    +0.220 C 
BRANCH  26  27
ATOM     27  C   UNL     1      -3.121  15.765 -38.299  0.00  0.00    +0.230 C 
BRANCH  27  28
ATOM     28  N   UNL     1      -3.161  14.400 -38.839  0.00  0.00    -0.530 NA
ATOM     29  C   UNL     1      -3.128  13.404 -37.759  0.00  0.00    +0.220 C 
ATOM     30  C   UNL     1      -3.231  12.000 -38.358  0.00  0.00    +0.280 C 
ATOM     31  N   UNL     1      -2.113  11.779 -39.283  0.00  0.00    -0.380 N 
ATOM     32  C   UNL     1      -2.172  12.765 -40.371  0.00  0.00    +0.280 C 
ATOM     33  H   UNL     1      -1.240  11.879 -38.786  0.00  0.00    +0.410 HD
ATOM     34  C   UNL     1      -2.060  14.176 -39.787  0.00  0.00    +0.200 C 
BRANCH  31  35
ATOM     35  C   UNL     1      -2.202  10.426 -39.846  0.00  0.00    +0.280 C 
BRANCH  35  36
ATOM     36  C   UNL     1      -1.616   9.437 -38.871  0.00  0.00    -0.130 A 
ATOM     37  C   UNL     1      -2.315   8.291 -38.544  0.00  0.00    -0.010 A 
ATOM     38  C   UNL     1      -1.778   7.383 -37.650  0.00  0.00    +0.030 A 
ATOM     39  C   UNL     1      -0.540   7.622 -37.084  0.00  0.00    +0.050 A 
ATOM     40  C   UNL     1       0.161   8.768 -37.411  0.00  0.00    +0.040 A 
ATOM     41  C   UNL     1      -0.375   9.673 -38.307  0.00  0.00    +0.040 A 
ENDBRANCH  35  36
BRANCH  35  42
ATOM     42  C   UNL     1      -1.434  10.367 -41.141  0.00  0.00    -0.130 A 
ATOM     43  C   UNL     1      -2.063   9.948 -42.299  0.00  0.00    -0.010 A 
ATOM     44  C   UNL     1      -1.360   9.894 -43.487  0.00  0.00    +0.030 A 
ATOM     45  C   UNL     1      -0.027  10.260 -43.519  0.00  0.00    +0.050 A 
ATOM     46  C   UNL     1       0.602  10.681 -42.361  0.00  0.00    +0.040 A 
ATOM     47  C   UNL     1      -0.103  10.738 -41.173  0.00  0.00    +0.040 A 
ENDBRANCH  35  42
ENDBRANCH  31  35
ENDBRANCH  27  28
ENDBRANCH  26  27
ENDBRANCH  25  26
ENDBRANCH   1  25
TORSDOF 12
ENDMDL
MODEL 5
REMARK VINA RESULT:      -7.5      2.132      4.622
REMARK  Name = ZINC000100005148
REMARK  15 active torsions:
REMARK  status: ('A' for Active; 'I' for Inactive)
REMARK    1  A    between atoms: C1_1  and  O2_2
REMARK    2  A    between atoms: O2_2  and  C3_3
REMARK    3  A    between atoms: C3_3  and  C5_5
REMARK    4  A    between atoms: C6_6  and  C7_7
REMARK    5  A    between atoms: C9_9  and  C10_10
REMARK    6  A    between atoms: C11_11  and  C12_12
REMARK    7  A    between atoms: C12_12  and  O14_14
REMARK    8  A    between atoms: O14_14  and  C15_15
REMARK    9  A    between atoms: C15_15  and  C16_16
REMARK   10  A    between atoms: C16_16  and  N17_17
REMARK   11  A    between atoms: N20_20  and  C22_22
REMARK   12  A    between atoms: C22_22  and  C23_23
REMARK   13  A    between atoms: C22_22  and  C29_29
REMARK   14  A    between atoms: C37_37  and  C39_39
REMARK   15  A    between atoms: C43_43  and  N44_44
REMARK                            x       y       z     vdW  Elec       q    Type
REMARK                         _______ _______ _______ _____ _____    ______ ____
ROOT
ATOM      1  C   UNL     1      -3.368  20.341 -27.144  0.00  0.00    +0.520 C 
ATOM      2  O   UNL     1      -3.749  21.485 -26.973  0.00  0.00    -0.520 OA
ENDROOT
BRANCH   1   8
ATOM      3  C   UNL     1      -5.467  17.203 -27.166  0.00  0.00    -0.240 C 
ATOM      4  C   UNL     1      -5.780  17.202 -28.473  0.00  0.00    +0.190 C 
ATOM      5  N   UNL     1      -5.528  18.298 -29.255  0.00  0.00    -0.630 N 
ATOM      6  H   UNL     1      -5.976  18.394 -30.109  0.00  0.00    +0.430 HD
ATOM      7  C   UNL     1      -4.647  19.257 -28.835  0.00  0.00    +0.250 C 
ATOM      8  C   UNL     1      -4.287  19.343 -27.542  0.00  0.00    -0.270 C 
ATOM      9  C   UNL     1      -4.074  20.230 -29.832  0.00  0.00    +0.160 C 
ATOM     10  C   UNL     1      -6.417  15.982 -29.087  0.00  0.00    +0.140 C 
ATOM     11  C   UNL     1      -4.845  18.402 -26.509  0.00  0.00    +0.200 C 
BRANCH  11  12
ATOM     12  C   UNL     1      -5.883  19.123 -25.690  0.00  0.00    -0.070 A 
ATOM     13  C   UNL     1      -6.769  19.989 -26.304  0.00  0.00    +0.080 A 
ATOM     14  C   UNL     1      -7.722  20.651 -25.552  0.00  0.00    +0.040 A 
ATOM     15  C   UNL     1      -7.788  20.448 -24.187  0.00  0.00    +0.100 A 
ATOM     16  C   UNL     1      -6.903  19.581 -23.573  0.00  0.00    -0.040 A 
ATOM     17  C   UNL     1      -5.953  18.916 -24.325  0.00  0.00    +0.110 A 
BRANCH  16  18
ATOM     18  N   UNL     1      -6.975  19.364 -22.110  0.00  0.00    +0.030 N 
ATOM     19  O   UNL     1      -7.328  20.269 -21.376  0.00  0.00    -0.170 OA
ATOM     20  O   UNL     1      -6.679  18.279 -21.641  0.00  0.00    -0.160 OA
ENDBRANCH  16  18
ENDBRANCH  11  12
BRANCH   3  21
ATOM     21  C   UNL     1      -5.735  16.050 -26.391  0.00  0.00    +0.530 C 
ATOM     22  O   UNL     1      -6.801  15.937 -25.816  0.00  0.00    -0.500 OA
BRANCH  21  24
ATOM     23  C   UNL     1      -3.666  15.349 -25.475  0.00  0.00    +0.260 C 
ATOM     24  O   UNL     1      -4.807  15.075 -26.290  0.00  0.00    -0.350 OA
ENDBRANCH  21  24
ENDBRANCH   3  21
ENDBRANCH   1   8
BRANCH   1  25
ATOM     25  O   UNL     1      -2.071  20.026 -26.953  0.00  0.00    -0.340 OA
BRANCH  25  26
ATOM     26  C   UNL     1      -1.107  20.752 -27.720  0.00  0.00    +0.220 C 
BRANCH  26  27
ATOM     27  C   UNL     1       0.013  19.806 -28.157  0.00  0.00    +0.230 C 
BRANCH  27  28
ATOM     28  N   UNL     1      -0.558  18.701 -28.938  0.00  0.00    -0.530 NA
ATOM     29  C   UNL     1       0.310  17.516 -28.886  0.00  0.00    +0.220 C 
ATOM     30  C   UNL     1      -0.347  16.371 -29.661  0.00  0.00    +0.280 C 
ATOM     31  N   UNL     1      -0.560  16.781 -31.054  0.00  0.00    -0.380 N 
ATOM     32  C   UNL     1      -1.448  17.951 -31.092  0.00  0.00    +0.280 C 
ATOM     33  H   UNL     1       0.326  17.019 -31.475  0.00  0.00    +0.410 HD
ATOM     34  C   UNL     1      -0.800  19.109 -30.330  0.00  0.00    +0.200 C 
BRANCH  31  35
ATOM     35  C   UNL     1      -1.175  15.677 -31.802  0.00  0.00    +0.280 C 
BRANCH  35  36
ATOM     36  C   UNL     1      -0.178  14.556 -31.952  0.00  0.00    -0.130 A 
ATOM     37  C   UNL     1       1.137  14.838 -32.270  0.00  0.00    -0.010 A 
ATOM     38  C   UNL     1       2.052  13.811 -32.407  0.00  0.00    +0.030 A 
ATOM     39  C   UNL     1       1.651  12.500 -32.226  0.00  0.00    +0.050 A 
ATOM     40  C   UNL     1       0.335  12.217 -31.908  0.00  0.00    +0.040 A 
ATOM     41  C   UNL     1      -0.578  13.245 -31.767  0.00  0.00    +0.040 A 
ENDBRANCH  35  36
BRANCH  35  42
ATOM     42  C   UNL     1      -1.592  16.163 -33.166  0.00  0.00    -0.130 A 
ATOM     43  C   UNL     1      -2.895  15.985 -33.594  0.00  0.00    -0.010 A 
ATOM     44  C   UNL     1      -3.277  16.431 -34.845  0.00  0.00    +0.030 A 
ATOM     45  C   UNL     1      -2.358  17.054 -35.668  0.00  0.00    +0.050 A 
ATOM     46  C   UNL     1      -1.056  17.233 -35.240  0.00  0.00    +0.040 A 
ATOM     47  C   UNL     1      -0.674  16.791 -33.987  0.00  0.00    +0.040 A 
ENDBRANCH  35  42
ENDBRANCH  31  35
ENDBRANCH  27  28
ENDBRANCH  26  27
ENDBRANCH  25  26
ENDBRANCH   1  25
TORSDOF 12
ENDMDL
MODEL 6
REMARK VINA RESULT:      -7.5     22.309     24.866
REMARK  Name = ZINC000100005148
REMARK  15 active torsions:
REMARK  status: ('A' for Active; 'I' for Inactive)
REMARK    1  A    between atoms: C1_1  and  O2_2
REMARK    2  A    between atoms: O2_2  and  C3_3
REMARK    3  A    between atoms: C3_3  and  C5_5
REMARK    4  A    between atoms: C6_6  and  C7_7
REMARK    5  A    between atoms: C9_9  and  C10_10
REMARK    6  A    between atoms: C11_11  and  C12_12
REMARK    7  A    between atoms: C12_12  and  O14_14
REMARK    8  A    between atoms: O14_14  and  C15_15
REMARK    9  A    between atoms: C15_15  and  C16_16
REMARK   10  A    between atoms: C16_16  and  N17_17
REMARK   11  A    between atoms: N20_20  and  C22_22
REMARK   12  A    between atoms: C22_22  and  C23_23
REMARK   13  A    between atoms: C22_22  and  C29_29
REMARK   14  A    between atoms: C37_37  and  C39_39
REMARK   15  A    between atoms: C43_43  and  N44_44
REMARK                            x       y       z     vdW  Elec       q    Type
REMARK                         _______ _______ _______ _____ _____    ______ ____
ROOT
ATOM      1  C   UNL     1       0.106  -3.529 -34.326  0.00  0.00    +0.520 C 
ATOM      2  O   UNL     1      -0.315  -2.409 -34.102  0.00  0.00    -0.520 OA
ENDROOT
BRANCH   1   8
ATOM      3  C   UNL     1      -1.129  -6.391 -36.458  0.00  0.00    -0.240 C 
ATOM      4  C   UNL     1      -1.017  -5.788 -37.654  0.00  0.00    +0.190 C 
ATOM      5  N   UNL     1      -0.787  -4.442 -37.741  0.00  0.00    -0.630 N 
ATOM      6  H   UNL     1      -0.960  -3.976 -38.574  0.00  0.00    +0.430 HD
ATOM      7  C   UNL     1      -0.315  -3.750 -36.659  0.00  0.00    +0.250 C 
ATOM      8  C   UNL     1      -0.399  -4.268 -35.421  0.00  0.00    -0.270 C 
ATOM      9  C   UNL     1       0.304  -2.391 -36.856  0.00  0.00    +0.160 C 
ATOM     10  C   UNL     1      -1.144  -6.605 -38.915  0.00  0.00    +0.140 C 
ATOM     11  C   UNL     1      -1.023  -5.615 -35.176  0.00  0.00    +0.200 C 
BRANCH  11  12
ATOM     12  C   UNL     1      -2.396  -5.426 -34.586  0.00  0.00    -0.070 A 
ATOM     13  C   UNL     1      -2.743  -6.079 -33.418  0.00  0.00    +0.080 A 
ATOM     14  C   UNL     1      -4.004  -5.905 -32.877  0.00  0.00    +0.040 A 
ATOM     15  C   UNL     1      -4.916  -5.079 -33.503  0.00  0.00    +0.100 A 
ATOM     16  C   UNL     1      -4.569  -4.424 -34.671  0.00  0.00    -0.040 A 
ATOM     17  C   UNL     1      -3.308  -4.595 -35.210  0.00  0.00    +0.110 A 
BRANCH  16  18
ATOM     18  N   UNL     1      -5.548  -3.539 -35.343  0.00  0.00    +0.030 N 
ATOM     19  O   UNL     1      -6.027  -3.864 -36.415  0.00  0.00    -0.170 OA
ATOM     20  O   UNL     1      -5.873  -2.487 -34.824  0.00  0.00    -0.160 OA
ENDBRANCH  16  18
ENDBRANCH  11  12
BRANCH   3  21
ATOM     21  C   UNL     1      -1.358  -7.786 -36.405  0.00  0.00    +0.530 C 
ATOM     22  O   UNL     1      -2.492  -8.219 -36.476  0.00  0.00    -0.500 OA
BRANCH  21  24
ATOM     23  C   UNL     1      -0.137  -9.252 -35.001  0.00  0.00    +0.260 C 
ATOM     24  O   UNL     1      -0.317  -8.635 -36.277  0.00  0.00    -0.350 OA
ENDBRANCH  21  24
ENDBRANCH   3  21
ENDBRANCH   1   8
BRANCH   1  25
ATOM     25  O   UNL     1       1.052  -4.066 -33.529  0.00  0.00    -0.340 OA
BRANCH  25  26
ATOM     26  C   UNL     1       2.378  -4.145 -34.057  0.00  0.00    +0.220 C 
BRANCH  26  27
ATOM     27  C   UNL     1       3.133  -2.854 -33.734  0.00  0.00    +0.230 C 
BRANCH  27  28
ATOM     28  N   UNL     1       4.403  -2.833 -34.471  0.00  0.00    -0.530 NA
ATOM     29  C   UNL     1       4.664  -4.131 -35.110  0.00  0.00    +0.220 C 
ATOM     30  C   UNL     1       5.963  -4.049 -35.914  0.00  0.00    +0.280 C 
ATOM     31  N   UNL     1       7.071  -3.694 -35.019  0.00  0.00    -0.380 N 
ATOM     32  C   UNL     1       6.809  -2.385 -34.407  0.00  0.00    +0.280 C 
ATOM     33  H   UNL     1       7.156  -4.392 -34.295  0.00  0.00    +0.410 HD
ATOM     34  C   UNL     1       5.517  -2.453 -33.590  0.00  0.00    +0.200 C 
BRANCH  31  35
ATOM     35  C   UNL     1       8.321  -3.632 -35.787  0.00  0.00    +0.280 C 
BRANCH  35  36
ATOM     36  C   UNL     1       8.274  -4.642 -36.905  0.00  0.00    -0.130 A 
ATOM     37  C   UNL     1       8.249  -4.218 -38.220  0.00  0.00    -0.010 A 
ATOM     38  C   UNL     1       8.207  -5.144 -39.246  0.00  0.00    +0.030 A 
ATOM     39  C   UNL     1       8.190  -6.496 -38.955  0.00  0.00    +0.050 A 
ATOM     40  C   UNL     1       8.216  -6.921 -37.639  0.00  0.00    +0.040 A 
ATOM     41  C   UNL     1       8.263  -5.994 -36.615  0.00  0.00    +0.040 A 
ENDBRANCH  35  36
BRANCH  35  42
ATOM     42  C   UNL     1       9.485  -3.940 -34.881  0.00  0.00    -0.130 A 
ATOM     43  C   UNL     1      10.776  -3.895 -35.375  0.00  0.00    -0.010 A 
ATOM     44  C   UNL     1      11.844  -4.177 -34.544  0.00  0.00    +0.030 A 
ATOM     45  C   UNL     1      11.621  -4.505 -33.220  0.00  0.00    +0.050 A 
ATOM     46  C   UNL     1      10.331  -4.550 -32.726  0.00  0.00    +0.040 A 
ATOM     47  C   UNL     1       9.263  -4.264 -33.556  0.00  0.00    +0.040 A 
ENDBRANCH  35  42
ENDBRANCH  31  35
ENDBRANCH  27  28
ENDBRANCH  26  27
ENDBRANCH  25  26
ENDBRANCH   1  25
TORSDOF 12
ENDMDL
MODEL 7
REMARK VINA RESULT:      -7.4      1.672      2.626
REMARK  Name = ZINC000100005148
REMARK  15 active torsions:
REMARK  status: ('A' for Active; 'I' for Inactive)
REMARK    1  A    between atoms: C1_1  and  O2_2
REMARK    2  A    between atoms: O2_2  and  C3_3
REMARK    3  A    between atoms: C3_3  and  C5_5
REMARK    4  A    between atoms: C6_6  and  C7_7
REMARK    5  A    between atoms: C9_9  and  C10_10
REMARK    6  A    between atoms: C11_11  and  C12_12
REMARK    7  A    between atoms: C12_12  and  O14_14
REMARK    8  A    between atoms: O14_14  and  C15_15
REMARK    9  A    between atoms: C15_15  and  C16_16
REMARK   10  A    between atoms: C16_16  and  N17_17
REMARK   11  A    between atoms: N20_20  and  C22_22
REMARK   12  A    between atoms: C22_22  and  C23_23
REMARK   13  A    between atoms: C22_22  and  C29_29
REMARK   14  A    between atoms: C37_37  and  C39_39
REMARK   15  A    between atoms: C43_43  and  N44_44
REMARK                            x       y       z     vdW  Elec       q    Type
REMARK                         _______ _______ _______ _____ _____    ______ ____
ROOT
ATOM      1  C   UNL     1      -6.686  19.967 -28.726  0.00  0.00    +0.520 C 
ATOM      2  O   UNL     1      -7.602  20.707 -29.034  0.00  0.00    -0.520 OA
ENDROOT
BRANCH   1   8
ATOM      3  C   UNL     1      -6.186  19.924 -24.984  0.00  0.00    -0.240 C 
ATOM      4  C   UNL     1      -5.057  20.652 -24.943  0.00  0.00    +0.190 C 
ATOM      5  N   UNL     1      -4.361  20.931 -26.088  0.00  0.00    -0.630 N 
ATOM      6  H   UNL     1      -3.438  21.224 -26.033  0.00  0.00    +0.430 HD
ATOM      7  C   UNL     1      -4.962  20.799 -27.310  0.00  0.00    +0.250 C 
ATOM      8  C   UNL     1      -6.087  20.076 -27.450  0.00  0.00    -0.270 C 
ATOM      9  C   UNL     1      -4.354  21.469 -28.515  0.00  0.00    +0.160 C 
ATOM     10  C   UNL     1      -4.550  21.168 -23.620  0.00  0.00    +0.140 C 
ATOM     11  C   UNL     1      -6.720  19.378 -26.277  0.00  0.00    +0.200 C 
BRANCH  11  12
ATOM     12  C   UNL     1      -6.426  17.902 -26.361  0.00  0.00    -0.070 A 
ATOM     13  C   UNL     1      -7.435  17.014 -26.683  0.00  0.00    +0.080 A 
ATOM     14  C   UNL     1      -7.165  15.660 -26.760  0.00  0.00    +0.040 A 
ATOM     15  C   UNL     1      -5.888  15.195 -26.514  0.00  0.00    +0.100 A 
ATOM     16  C   UNL     1      -4.878  16.084 -26.192  0.00  0.00    -0.040 A 
ATOM     17  C   UNL     1      -5.147  17.438 -26.119  0.00  0.00    +0.110 A 
BRANCH  16  18
ATOM     18  N   UNL     1      -3.509  15.585 -25.928  0.00  0.00    +0.030 N 
ATOM     19  O   UNL     1      -2.567  16.031 -26.558  0.00  0.00    -0.170 OA
ATOM     20  O   UNL     1      -3.326  14.729 -25.081  0.00  0.00    -0.160 OA
ENDBRANCH  16  18
ENDBRANCH  11  12
BRANCH   3  21
ATOM     21  C   UNL     1      -6.883  19.662 -23.781  0.00  0.00    +0.530 C 
ATOM     22  O   UNL     1      -6.628  18.664 -23.135  0.00  0.00    -0.500 OA
BRANCH  21  24
ATOM     23  C   UNL     1      -7.952  20.701 -21.939  0.00  0.00    +0.260 C 
ATOM     24  O   UNL     1      -7.832  20.520 -23.352  0.00  0.00    -0.350 OA
ENDBRANCH  21  24
ENDBRANCH   3  21
ENDBRANCH   1   8
BRANCH   1  25
ATOM     25  O   UNL     1      -6.241  19.043 -29.603  0.00  0.00    -0.340 OA
BRANCH  25  26
ATOM     26  C   UNL     1      -6.131  19.446 -30.970  0.00  0.00    +0.220 C 
BRANCH  26  27
ATOM     27  C   UNL     1      -6.115  18.206 -31.866  0.00  0.00    +0.230 C 
BRANCH  27  28
ATOM     28  N   UNL     1      -4.740  17.939 -32.307  0.00  0.00    -0.530 NA
ATOM     29  C   UNL     1      -4.709  17.529 -33.718  0.00  0.00    +0.220 C 
ATOM     30  C   UNL     1      -3.258  17.318 -34.155  0.00  0.00    +0.280 C 
ATOM     31  N   UNL     1      -2.638  16.287 -33.314  0.00  0.00    -0.380 N 
ATOM     32  C   UNL     1      -2.653  16.721 -31.910  0.00  0.00    +0.280 C 
ATOM     33  H   UNL     1      -3.154  15.424 -33.404  0.00  0.00    +0.410 HD
ATOM     34  C   UNL     1      -4.100  16.926 -31.456  0.00  0.00    +0.200 C 
BRANCH  31  35
ATOM     35  C   UNL     1      -1.250  16.073 -33.743  0.00  0.00    +0.280 C 
BRANCH  35  36
ATOM     36  C   UNL     1      -1.237  15.553 -35.158  0.00  0.00    -0.130 A 
ATOM     37  C   UNL     1      -0.325  16.052 -36.069  0.00  0.00    -0.010 A 
ATOM     38  C   UNL     1      -0.311  15.576 -37.367  0.00  0.00    +0.030 A 
ATOM     39  C   UNL     1      -1.211  14.599 -37.753  0.00  0.00    +0.050 A 
ATOM     40  C   UNL     1      -2.122  14.099 -36.842  0.00  0.00    +0.040 A 
ATOM     41  C   UNL     1      -2.133  14.573 -35.544  0.00  0.00    +0.040 A 
ENDBRANCH  35  36
BRANCH  35  42
ATOM     42  C   UNL     1      -0.590  15.068 -32.834  0.00  0.00    -0.130 A 
ATOM     43  C   UNL     1       0.722  15.251 -32.438  0.00  0.00    -0.010 A 
ATOM     44  C   UNL     1       1.326  14.330 -31.604  0.00  0.00    +0.030 A 
ATOM     45  C   UNL     1       0.620  13.225 -31.166  0.00  0.00    +0.050 A 
ATOM     46  C   UNL     1      -0.692  13.043 -31.562  0.00  0.00    +0.040 A 
ATOM     47  C   UNL     1      -1.299  13.966 -32.393  0.00  0.00    +0.040 A 
ENDBRANCH  35  42
ENDBRANCH  31  35
ENDBRANCH  27  28
ENDBRANCH  26  27
ENDBRANCH  25  26
ENDBRANCH   1  25
TORSDOF 12
ENDMDL
MODEL 8
REMARK VINA RESULT:      -7.4      2.116      4.919
REMARK  Name = ZINC000100005148
REMARK  15 active torsions:
REMARK  status: ('A' for Active; 'I' for Inactive)
REMARK    1  A    between atoms: C1_1  and  O2_2
REMARK    2  A    between atoms: O2_2  and  C3_3
REMARK    3  A    between atoms: C3_3  and  C5_5
REMARK    4  A    between atoms: C6_6  and  C7_7
REMARK    5  A    between atoms: C9_9  and  C10_10
REMARK    6  A    between atoms: C11_11  and  C12_12
REMARK    7  A    between atoms: C12_12  and  O14_14
REMARK    8  A    between atoms: O14_14  and  C15_15
REMARK    9  A    between atoms: C15_15  and  C16_16
REMARK   10  A    between atoms: C16_16  and  N17_17
REMARK   11  A    between atoms: N20_20  and  C22_22
REMARK   12  A    between atoms: C22_22  and  C23_23
REMARK   13  A    between atoms: C22_22  and  C29_29
REMARK   14  A    between atoms: C37_37  and  C39_39
REMARK   15  A    between atoms: C43_43  and  N44_44
REMARK                            x       y       z     vdW  Elec       q    Type
REMARK                         _______ _______ _______ _____ _____    ______ ____
ROOT
ATOM      1  C   UNL     1      -3.456  20.157 -27.207  0.00  0.00    +0.520 C 
ATOM      2  O   UNL     1      -3.838  21.275 -26.913  0.00  0.00    -0.520 OA
ENDROOT
BRANCH   1   8
ATOM      3  C   UNL     1      -5.594  17.046 -27.244  0.00  0.00    -0.240 C 
ATOM      4  C   UNL     1      -5.914  17.060 -28.549  0.00  0.00    +0.190 C 
ATOM      5  N   UNL     1      -5.653  18.159 -29.323  0.00  0.00    -0.630 N 
ATOM      6  H   UNL     1      -6.104  18.268 -30.174  0.00  0.00    +0.430 HD
ATOM      7  C   UNL     1      -4.757  19.104 -28.900  0.00  0.00    +0.250 C 
ATOM      8  C   UNL     1      -4.389  19.174 -27.608  0.00  0.00    -0.270 C 
ATOM      9  C   UNL     1      -4.178  20.078 -29.892  0.00  0.00    +0.160 C 
ATOM     10  C   UNL     1      -6.569  15.853 -29.170  0.00  0.00    +0.140 C 
ATOM     11  C   UNL     1      -4.953  18.231 -26.580  0.00  0.00    +0.200 C 
BRANCH  11  12
ATOM     12  C   UNL     1      -5.978  18.958 -25.749  0.00  0.00    -0.070 A 
ATOM     13  C   UNL     1      -6.927  19.754 -26.363  0.00  0.00    +0.080 A 
ATOM     14  C   UNL     1      -7.868  20.421 -25.600  0.00  0.00    +0.040 A 
ATOM     15  C   UNL     1      -7.858  20.293 -24.224  0.00  0.00    +0.100 A 
ATOM     16  C   UNL     1      -6.909  19.497 -23.610  0.00  0.00    -0.040 A 
ATOM     17  C   UNL     1      -5.971  18.827 -24.373  0.00  0.00    +0.110 A 
BRANCH  16  18
ATOM     18  N   UNL     1      -6.898  19.361 -22.136  0.00  0.00    +0.030 N 
ATOM     19  O   UNL     1      -6.778  18.261 -21.627  0.00  0.00    -0.170 OA
ATOM     20  O   UNL     1      -7.010  20.349 -21.433  0.00  0.00    -0.160 OA
ENDBRANCH  16  18
ENDBRANCH  11  12
BRANCH   3  21
ATOM     21  C   UNL     1      -5.872  15.889 -26.478  0.00  0.00    +0.530 C 
ATOM     22  O   UNL     1      -5.133  14.925 -26.542  0.00  0.00    -0.500 OA
BRANCH  21  24
ATOM     23  C   UNL     1      -8.140  15.263 -26.210  0.00  0.00    +0.260 C 
ATOM     24  O   UNL     1      -6.956  15.857 -25.675  0.00  0.00    -0.350 OA
ENDBRANCH  21  24
ENDBRANCH   3  21
ENDBRANCH   1   8
BRANCH   1  25
ATOM     25  O   UNL     1      -2.142  19.857 -27.149  0.00  0.00    -0.340 OA
BRANCH  25  26
ATOM     26  C   UNL     1      -1.321  20.326 -28.221  0.00  0.00    +0.220 C 
BRANCH  26  27
ATOM     27  C   UNL     1       0.049  19.651 -28.146  0.00  0.00    +0.230 C 
BRANCH  27  28
ATOM     28  N   UNL     1       0.307  18.926 -29.397  0.00  0.00    -0.530 NA
ATOM     29  C   UNL     1      -0.842  19.021 -30.308  0.00  0.00    +0.220 C 
ATOM     30  C   UNL     1      -0.511  18.305 -31.619  0.00  0.00    +0.280 C 
ATOM     31  N   UNL     1      -0.199  16.897 -31.344  0.00  0.00    -0.380 N 
ATOM     32  C   UNL     1       0.966  16.817 -30.453  0.00  0.00    +0.280 C 
ATOM     33  H   UNL     1      -0.991  16.457 -30.901  0.00  0.00    +0.410 HD
ATOM     34  C   UNL     1       0.647  17.521 -29.131  0.00  0.00    +0.200 C 
BRANCH  31  35
ATOM     35  C   UNL     1       0.102  16.207 -32.605  0.00  0.00    +0.280 C 
BRANCH  35  36
ATOM     36  C   UNL     1      -1.063  16.355 -33.549  0.00  0.00    -0.130 A 
ATOM     37  C   UNL     1      -2.357  16.269 -33.070  0.00  0.00    -0.010 A 
ATOM     38  C   UNL     1      -3.426  16.406 -33.935  0.00  0.00    +0.030 A 
ATOM     39  C   UNL     1      -3.201  16.629 -35.281  0.00  0.00    +0.050 A 
ATOM     40  C   UNL     1      -1.907  16.715 -35.761  0.00  0.00    +0.040 A 
ATOM     41  C   UNL     1      -0.839  16.582 -34.894  0.00  0.00    +0.040 A 
ENDBRANCH  35  36
BRANCH  35  42
ATOM     42  C   UNL     1       0.344  14.744 -32.332  0.00  0.00    -0.130 A 
ATOM     43  C   UNL     1      -0.589  14.010 -31.623  0.00  0.00    -0.010 A 
ATOM     44  C   UNL     1      -0.367  12.669 -31.373  0.00  0.00    +0.030 A 
ATOM     45  C   UNL     1       0.787  12.062 -31.831  0.00  0.00    +0.050 A 
ATOM     46  C   UNL     1       1.719  12.796 -32.541  0.00  0.00    +0.040 A 
ATOM     47  C   UNL     1       1.496  14.137 -32.795  0.00  0.00    +0.040 A 
ENDBRANCH  35  42
ENDBRANCH  31  35
ENDBRANCH  27  28
ENDBRANCH  26  27
ENDBRANCH  25  26
ENDBRANCH   1  25
TORSDOF 12
ENDMDL
MODEL 9
REMARK VINA RESULT:      -7.4     21.983     24.624
REMARK  Name = ZINC000100005148
REMARK  15 active torsions:
REMARK  status: ('A' for Active; 'I' for Inactive)
REMARK    1  A    between atoms: C1_1  and  O2_2
REMARK    2  A    between atoms: O2_2  and  C3_3
REMARK    3  A    between atoms: C3_3  and  C5_5
REMARK    4  A    between atoms: C6_6  and  C7_7
REMARK    5  A    between atoms: C9_9  and  C10_10
REMARK    6  A    between atoms: C11_11  and  C12_12
REMARK    7  A    between atoms: C12_12  and  O14_14
REMARK    8  A    between atoms: O14_14  and  C15_15
REMARK    9  A    between atoms: C15_15  and  C16_16
REMARK   10  A    between atoms: C16_16  and  N17_17
REMARK   11  A    between atoms: N20_20  and  C22_22
REMARK   12  A    between atoms: C22_22  and  C23_23
REMARK   13  A    between atoms: C22_22  and  C29_29
REMARK   14  A    between atoms: C37_37  and  C39_39
REMARK   15  A    between atoms: C43_43  and  N44_44
REMARK                            x       y       z     vdW  Elec       q    Type
REMARK                         _______ _______ _______ _____ _____    ______ ____
ROOT
ATOM      1  C   UNL     1      -0.324  -3.817 -35.013  0.00  0.00    +0.520 C 
ATOM      2  O   UNL     1      -0.688  -3.180 -35.984  0.00  0.00    -0.520 OA
ENDROOT
BRANCH   1   8
ATOM      3  C   UNL     1      -2.039  -6.910 -33.691  0.00  0.00    -0.240 C 
ATOM      4  C   UNL     1      -1.250  -7.823 -34.284  0.00  0.00    +0.190 C 
ATOM      5  N   UNL     1      -0.362  -7.454 -35.258  0.00  0.00    -0.630 N 
ATOM      6  H   UNL     1       0.010  -8.126 -35.851  0.00  0.00    +0.430 HD
ATOM      7  C   UNL     1       0.003  -6.143 -35.399  0.00  0.00    +0.250 C 
ATOM      8  C   UNL     1      -0.735  -5.160 -34.854  0.00  0.00    -0.270 C 
ATOM      9  C   UNL     1       1.245  -5.796 -36.178  0.00  0.00    +0.160 C 
ATOM     10  C   UNL     1      -1.344  -9.269 -33.871  0.00  0.00    +0.140 C 
ATOM     11  C   UNL     1      -1.991  -5.460 -34.081  0.00  0.00    +0.200 C 
BRANCH  11  12
ATOM     12  C   UNL     1      -3.188  -5.126 -34.932  0.00  0.00    -0.070 A 
ATOM     13  C   UNL     1      -3.336  -5.709 -36.176  0.00  0.00    +0.080 A 
ATOM     14  C   UNL     1      -4.436  -5.402 -36.957  0.00  0.00    +0.040 A 
ATOM     15  C   UNL     1      -5.385  -4.512 -36.493  0.00  0.00    +0.100 A 
ATOM     16  C   UNL     1      -5.238  -3.929 -35.248  0.00  0.00    -0.040 A 
ATOM     17  C   UNL     1      -4.141  -4.239 -34.466  0.00  0.00    +0.110 A 
BRANCH  16  18
ATOM     18  N   UNL     1      -6.255  -2.975 -34.752  0.00  0.00    +0.030 N 
ATOM     19  O   UNL     1      -5.917  -2.024 -34.070  0.00  0.00    -0.170 OA
ATOM     20  O   UNL     1      -7.430  -3.141 -35.025  0.00  0.00    -0.160 OA
ENDBRANCH  16  18
ENDBRANCH  11  12
BRANCH   3  21
ATOM     21  C   UNL     1      -2.940  -7.325 -32.682  0.00  0.00    +0.530 C 
ATOM     22  O   UNL     1      -3.965  -7.906 -32.984  0.00  0.00    -0.500 OA
BRANCH  21  24
ATOM     23  C   UNL     1      -2.530  -8.209 -30.523  0.00  0.00    +0.260 C 
ATOM     24  O   UNL     1      -2.660  -7.077 -31.386  0.00  0.00    -0.350 OA
ENDBRANCH  21  24
ENDBRANCH   3  21
ENDBRANCH   1   8
BRANCH   1  25
ATOM     25  O   UNL     1       0.471  -3.240 -34.088  0.00  0.00    -0.340 OA
BRANCH  25  26
ATOM     26  C   UNL     1       1.610  -2.523 -34.567  0.00  0.00    +0.220 C 
BRANCH  26  27
ATOM     27  C   UNL     1       2.792  -2.754 -33.623  0.00  0.00    +0.230 C 
BRANCH  27  28
ATOM     28  N   UNL     1       4.042  -2.748 -34.394  0.00  0.00    -0.530 NA
ATOM     29  C   UNL     1       4.301  -4.067 -34.988  0.00  0.00    +0.220 C 
ATOM     30  C   UNL     1       5.578  -4.003 -35.830  0.00  0.00    +0.280 C 
ATOM     31  N   UNL     1       6.705  -3.601 -34.980  0.00  0.00    -0.380 N 
ATOM     32  C   UNL     1       6.443  -2.271 -34.412  0.00  0.00    +0.280 C 
ATOM     33  H   UNL     1       6.818  -4.268 -34.232  0.00  0.00    +0.410 HD
ATOM     34  C   UNL     1       5.174  -2.321 -33.559  0.00  0.00    +0.200 C 
BRANCH  31  35
ATOM     35  C   UNL     1       7.934  -3.555 -35.783  0.00  0.00    +0.280 C 
BRANCH  35  36
ATOM     36  C   UNL     1       7.848  -4.575 -36.890  0.00  0.00    -0.130 A 
ATOM     37  C   UNL     1       7.998  -4.181 -38.206  0.00  0.00    -0.010 A 
ATOM     38  C   UNL     1       7.920  -5.116 -39.222  0.00  0.00    +0.030 A 
ATOM     39  C   UNL     1       7.692  -6.446 -38.920  0.00  0.00    +0.050 A 
ATOM     40  C   UNL     1       7.542  -6.841 -37.603  0.00  0.00    +0.040 A 
ATOM     41  C   UNL     1       7.624  -5.906 -36.588  0.00  0.00    +0.040 A 
ENDBRANCH  35  36
BRANCH  35  42
ATOM     42  C   UNL     1       9.120  -3.864 -34.907  0.00  0.00    -0.130 A 
ATOM     43  C   UNL     1      10.394  -3.865 -35.445  0.00  0.00    -0.010 A 
ATOM     44  C   UNL     1      11.482  -4.148 -34.642  0.00  0.00    +0.030 A 
ATOM     45  C   UNL     1      11.298  -4.432 -33.301  0.00  0.00    +0.050 A 
ATOM     46  C   UNL     1      10.024  -4.431 -32.764  0.00  0.00    +0.040 A 
ATOM     47  C   UNL     1       8.935  -4.143 -33.566  0.00  0.00    +0.040 A 
ENDBRANCH  35  42
ENDBRANCH  31  35
ENDBRANCH  27  28
ENDBRANCH  26  27
ENDBRANCH  25  26
ENDBRANCH   1  25
TORSDOF 12
ENDMDL
