REMARK  Name = ZINC000100005148
REMARK  15 active torsions:
REMARK  status: ('A' for Active; 'I' for Inactive)
REMARK    1  A    between atoms: C1_1  and  O2_2
REMARK    2  A    between atoms: O2_2  and  C3_3
REMARK    3  A    between atoms: C3_3  and  C5_5
REMARK    4  A    between atoms: C6_6  and  C7_7
REMARK    5  A    between atoms: C9_9  and  C10_10
REMARK    6  A    between atoms: C11_11  and  C12_12
REMARK    7  A    between atoms: C12_12  and  O14_14
REMARK    8  A    between atoms: O14_14  and  C15_15
REMARK    9  A    between atoms: C15_15  and  C16_16
REMARK   10  A    between atoms: C16_16  and  N17_17
REMARK   11  A    between atoms: N20_20  and  C22_22
REMARK   12  A    between atoms: C22_22  and  C23_23
REMARK   13  A    between atoms: C22_22  and  C29_29
REMARK   14  A    between atoms: C37_37  and  C39_39
REMARK   15  A    between atoms: C43_43  and  N44_44
REMARK                            x       y       z     vdW  Elec       q    Type
REMARK                         _______ _______ _______ _____ _____    ______ ____
ROOT
ATOM      1  C   UNL     1       0.972  -4.462   0.240  0.00  0.00    +0.520 C 
ATOM      2  O   UNL     1       0.680  -5.577   0.632  0.00  0.00    -0.520 OA
ENDROOT
BRANCH   1   8
ATOM      3  C   UNL     1      -0.838  -1.225  -0.467  0.00  0.00    -0.240 C 
ATOM      4  C   UNL     1      -2.093  -1.681  -0.314  0.00  0.00    +0.190 C 
ATOM      5  N   UNL     1      -2.345  -3.024  -0.230  0.00  0.00    -0.630 N 
ATOM      6  H   UNL     1      -3.244  -3.356  -0.377  0.00  0.00    +0.430 HD
ATOM      7  C   UNL     1      -1.334  -3.899   0.061  0.00  0.00    +0.250 C 
ATOM      8  C   UNL     1      -0.047  -3.535  -0.077  0.00  0.00    -0.270 C 
ATOM      9  C   UNL     1      -1.667  -5.288   0.540  0.00  0.00    +0.160 C 
ATOM     10  C   UNL     1      -3.237  -0.703  -0.234  0.00  0.00    +0.140 C 
ATOM     11  C   UNL     1       0.331  -2.163  -0.566  0.00  0.00    +0.200 C 
BRANCH  11  12
ATOM     12  C   UNL     1       0.784  -2.255  -2.000  0.00  0.00    -0.070 A 
ATOM     13  C   UNL     1      -0.081  -2.728  -2.969  0.00  0.00    +0.080 A 
ATOM     14  C   UNL     1       0.335  -2.812  -4.285  0.00  0.00    +0.040 A 
ATOM     15  C   UNL     1       1.615  -2.424  -4.631  0.00  0.00    +0.100 A 
ATOM     16  C   UNL     1       2.480  -1.950  -3.662  0.00  0.00    -0.040 A 
ATOM     17  C   UNL     1       2.063  -1.862  -2.347  0.00  0.00    +0.110 A 
BRANCH  16  18
ATOM     18  N   UNL     1       3.852  -1.535  -4.033  0.00  0.00    +0.030 N 
ATOM     19  O   UNL     1       4.614  -1.118  -3.179  0.00  0.00    -0.170 OA
ATOM     20  O   UNL     1       4.218  -1.610  -5.192  0.00  0.00    -0.160 OA
ENDBRANCH  16  18
ENDBRANCH  11  12
BRANCH   3  21
ATOM     21  C   UNL     1      -0.614   0.170  -0.542  0.00  0.00    +0.530 C 
ATOM     22  O   UNL     1      -0.191   0.771   0.427  0.00  0.00    -0.500 OA
BRANCH  21  24
ATOM     23  C   UNL     1      -0.620   2.240  -1.694  0.00  0.00    +0.260 C 
ATOM     24  O   UNL     1      -0.870   0.833  -1.689  0.00  0.00    -0.350 OA
ENDBRANCH  21  24
ENDBRANCH   3  21
ENDBRANCH   1   8
BRANCH   1  25
ATOM     25  O   UNL     1       2.268  -4.112   0.107  0.00  0.00    -0.340 OA
BRANCH  25  26
ATOM     26  C   UNL     1       3.245  -5.099   0.445  0.00  0.00    +0.220 C 
BRANCH  26  27
ATOM     27  C   UNL     1       4.646  -4.523   0.232  0.00  0.00    +0.230 C 
BRANCH  27  28
ATOM     28  N   UNL     1       4.853  -3.390   1.143  0.00  0.00    -0.530 NA
ATOM     29  C   UNL     1       6.092  -2.670   0.816  0.00  0.00    +0.220 C 
ATOM     30  C   UNL     1       6.240  -1.465   1.747  0.00  0.00    +0.280 C 
ATOM     31  N   UNL     1       6.275  -1.924   3.141  0.00  0.00    -0.380 N 
ATOM     32  C   UNL     1       5.021  -2.620   3.461  0.00  0.00    +0.280 C 
ATOM     33  H   UNL     1       7.051  -2.556   3.268  0.00  0.00    +0.410 HD
ATOM     34  C   UNL     1       4.863  -3.835   2.544  0.00  0.00    +0.200 C 
BRANCH  31  35
ATOM     35  C   UNL     1       6.434  -0.769   4.034  0.00  0.00    +0.280 C 
BRANCH  35  36
ATOM     36  C   UNL     1       7.721  -0.056   3.708  0.00  0.00    -0.130 A 
ATOM     37  C   UNL     1       8.855  -0.783   3.398  0.00  0.00    -0.010 A 
ATOM     38  C   UNL     1      10.036  -0.130   3.098  0.00  0.00    +0.030 A 
ATOM     39  C   UNL     1      10.082   1.252   3.108  0.00  0.00    +0.050 A 
ATOM     40  C   UNL     1       8.948   1.980   3.417  0.00  0.00    +0.040 A 
ATOM     41  C   UNL     1       7.767   1.326   3.713  0.00  0.00    +0.040 A 
ENDBRANCH  35  36
BRANCH  35  42
ATOM     42  C   UNL     1       6.470  -1.240   5.465  0.00  0.00    -0.130 A 
ATOM     43  C   UNL     1       7.158  -2.393   5.796  0.00  0.00    -0.010 A 
ATOM     44  C   UNL     1       7.191  -2.825   7.108  0.00  0.00    +0.030 A 
ATOM     45  C   UNL     1       6.536  -2.105   8.090  0.00  0.00    +0.050 A 
ATOM     46  C   UNL     1       5.849  -0.952   7.759  0.00  0.00    +0.040 A 
ATOM     47  C   UNL     1       5.819  -0.517   6.447  0.00  0.00    +0.040 A 
ENDBRANCH  35  42
ENDBRANCH  31  35
ENDBRANCH  27  28
ENDBRANCH  26  27
ENDBRANCH  25  26
ENDBRANCH   1  25
TORSDOF 12
