REMARK  Name = ZINC000003812975
REMARK  7 active torsions:
REMARK  status: ('A' for Active; 'I' for Inactive)
REMARK    1  A    between atoms: C1_1  and  N2_2
REMARK    2  A    between atoms: C11_11  and  C13_13
REMARK    3  A    between atoms: C13_13  and  N14_14
REMARK    4  A    between atoms: C15_15  and  O17_17
REMARK    5  A    between atoms: O17_17  and  C18_18
REMARK    6  A    between atoms: C18_18  and  C19_19
REMARK    7  A    between atoms: N26_26  and  C28_28
REMARK                            x       y       z     vdW  Elec       q    Type
REMARK                         _______ _______ _______ _____ _____    ______ ____
ROOT
ATOM      1  C   UNL     1      -0.018   1.461   0.010  0.00  0.00    +0.330 C 
ATOM      2  N   UNL     1       0.002  -0.004   0.002  0.00  0.00    -0.480 N 
ATOM      3  C   UNL     1       0.008  -0.789  -1.141  0.00  0.00    +0.260 A 
ATOM      4  C   UNL     1       0.029  -2.073  -0.816  0.00  0.00    -0.200 A 
ATOM      5  C   UNL     1       0.035  -3.380  -1.567  0.00  0.00    +0.140 C 
ATOM      6  C   UNL     1      -0.582  -4.452  -0.657  0.00  0.00    +0.180 C 
ATOM      7  C   UNL     1       0.112  -4.577   0.700  0.00  0.00    +0.070 C 
ATOM      8  C   UNL     1       0.074  -3.277   1.445  0.00  0.00    -0.050 A 
ATOM      9  C   UNL     1       0.077  -3.078   2.789  0.00  0.00    +0.010 A 
ATOM     10  C   UNL     1       0.059  -1.745   3.284  0.00  0.00    +0.030 A 
ATOM     11  C   UNL     1       0.032  -0.601   2.497  0.00  0.00    +0.030 A 
ATOM     12  C   UNL     1      -0.598  -5.645   1.538  0.00  0.00    +0.070 C 
ATOM     13  C   UNL     1      -0.611  -6.967   0.766  0.00  0.00    -0.010 C 
ATOM     14  C   UNL     1      -1.290  -6.749  -0.588  0.00  0.00    +0.260 C 
ATOM     15  N   UNL     1      -0.531  -5.747  -1.348  0.00  0.00    -0.380 N 
ATOM     16  C   UNL     1       0.862  -6.192  -1.485  0.00  0.00    +0.330 C 
ATOM     17  H   UNL     1      -0.941  -5.641  -2.264  0.00  0.00    +0.430 HD
ATOM     18  C   UNL     1       0.041  -2.106   0.647  0.00  0.00    -0.140 A 
ATOM     19  C   UNL     1       0.023  -0.788   1.116  0.00  0.00    +0.110 A 
ENDROOT
BRANCH  13  20
ATOM     20  C   UNL     1      -1.384  -8.018   1.564  0.00  0.00    +0.320 C 
BRANCH  20  21
ATOM     21  N   UNL     1      -1.295  -9.312   0.883  0.00  0.00    -0.720 N 
ATOM     22  H   UNL     1      -0.797  -9.390   0.054  0.00  0.00    +0.400 HD
ATOM     23  C   UNL     1      -1.904 -10.394   1.407  0.00  0.00    +0.650 C 
ATOM     24  O   UNL     1      -2.528 -10.296   2.446  0.00  0.00    -0.560 OA
BRANCH  23  25
ATOM     25  O   UNL     1      -1.822 -11.583   0.781  0.00  0.00    -0.360 OA
BRANCH  25  26
ATOM     26  C   UNL     1      -2.503 -12.704   1.403  0.00  0.00    +0.290 C 
BRANCH  26  27
ATOM     27  C   UNL     1      -2.302 -13.941   0.566  0.00  0.00    -0.110 A 
ATOM     28  C   UNL     1      -3.198 -14.247  -0.441  0.00  0.00    +0.030 A 
ATOM     29  C   UNL     1      -3.014 -15.382  -1.209  0.00  0.00    +0.010 A 
ATOM     30  C   UNL     1      -1.933 -16.210  -0.970  0.00  0.00    +0.030 A 
ATOM     31  C   UNL     1      -1.036 -15.903   0.037  0.00  0.00    +0.010 A 
ATOM     32  C   UNL     1      -1.218 -14.766   0.802  0.00  0.00    +0.040 A 
ENDBRANCH  26  27
ENDBRANCH  25  26
ENDBRANCH  23  25
ENDBRANCH  20  21
ENDBRANCH  13  20
TORSDOF 5
