@<TRIPOS>MOLECULE
ZINC000003812975
60    64    1     0     0
SMALL
USER_CHARGES
@<TRIPOS>ATOM
1      C1     -0.0178    1.4608    0.0101 C.3      1 ZINC000003812975    0.0700
2      N2      0.0021   -0.0041    0.0020 N.pl3    1 ZINC000003812975   -0.4800
3      C3      0.0080   -0.7895   -1.1411 C.2      1 ZINC000003812975    0.0900
4      C4      0.0288   -2.0728   -0.8158 C.2      1 ZINC000003812975   -0.2000
5      C5      0.0348   -3.3797   -1.5672 C.3      1 ZINC000003812975   -0.0500
6      C6     -0.5816   -4.4523   -0.6569 C.3      1 ZINC000003812975    0.0400
7      H7     -1.6273   -4.1969   -0.4854 H        1 ZINC000003812975    0.1400
8      C8      0.1121   -4.5774    0.7001 C.3      1 ZINC000003812975   -0.0400
9      H9      1.1500   -4.8731    0.5468 H        1 ZINC000003812975    0.1100
10     C10    -0.5980   -5.6452    1.5384 C.3      1 ZINC000003812975   -0.1300
11     C11    -0.6111   -6.9668    0.7658 C.3      1 ZINC000003812975   -0.1200
12     H12     0.4124   -7.3076    0.6095 H        1 ZINC000003812975    0.1100
13     C13    -1.3839   -8.0184    1.5644 C.3      1 ZINC000003812975    0.1400
14     N14    -1.2947   -9.3121    0.8827 N.am     1 ZINC000003812975   -0.7200
15     C15    -1.9042  -10.3937    1.4073 C.2      1 ZINC000003812975    0.6500
16     O16    -2.5276  -10.2958    2.4457 O.2      1 ZINC000003812975   -0.5600
17     O17    -1.8221  -11.5826    0.7808 O.3      1 ZINC000003812975   -0.3600
18     C18    -2.5030  -12.7040    1.4032 C.3      1 ZINC000003812975    0.1300
19     C19    -2.3020  -13.9409    0.5662 C.ar     1 ZINC000003812975   -0.1100
20     C20    -3.1980  -14.2472   -0.4409 C.ar     1 ZINC000003812975   -0.0900
21     C21    -3.0136  -15.3818   -1.2087 C.ar     1 ZINC000003812975   -0.1200
22     C22    -1.9329  -16.2100   -0.9696 C.ar     1 ZINC000003812975   -0.1000
23     C23    -1.0364  -15.9033    0.0370 C.ar     1 ZINC000003812975   -0.1200
24     C24    -1.2184  -14.7664    0.8019 C.ar     1 ZINC000003812975   -0.0900
25     C25    -1.2904   -6.7494   -0.5883 C.3      1 ZINC000003812975   -0.0100
26     N26    -0.5312   -5.7470   -1.3483 N.4      1 ZINC000003812975   -0.3800
27     H27    -0.9405   -5.6407   -2.2644 H        1 ZINC000003812975    0.4300
28     C28     0.8621   -6.1916   -1.4854 C.3      1 ZINC000003812975   -0.0600
29     C29     0.0740   -3.2771    1.4446 C.ar     1 ZINC000003812975   -0.0500
30     C30     0.0409   -2.1061    0.6467 C.ar     1 ZINC000003812975   -0.1400
31     C31     0.0233   -0.7876    1.1160 C.ar     1 ZINC000003812975    0.1100
32     C32     0.0318   -0.6013    2.4973 C.ar     1 ZINC000003812975   -0.1000
33     C33     0.0591   -1.7453    3.2835 C.ar     1 ZINC000003812975   -0.1000
34     C34     0.0774   -3.0780    2.7891 C.ar     1 ZINC000003812975   -0.1200
35     H35     1.0048    1.8381    0.0023 H        1 ZINC000003812975    0.0800
36     H36    -0.5450    1.8219   -0.8730 H        1 ZINC000003812975    0.0900
37     H37    -0.5280    1.8123    0.9069 H        1 ZINC000003812975    0.0900
38     H38    -0.0032   -0.4089   -2.1517 H        1 ZINC000003812975    0.1700
39     H39    -0.5572   -3.2842   -2.4775 H        1 ZINC000003812975    0.1000
40     H40     1.0588   -3.6548   -1.8199 H        1 ZINC000003812975    0.0900
41     H41    -0.0678   -5.7799    2.4812 H        1 ZINC000003812975    0.1100
42     H42    -1.6222   -5.3299    1.7377 H        1 ZINC000003812975    0.0900
43     H43    -0.9555   -8.1036    2.5630 H        1 ZINC000003812975    0.0900
44     H44    -2.4294   -7.7199    1.6418 H        1 ZINC000003812975    0.0900
45     H45    -0.7970   -9.3902    0.0538 H        1 ZINC000003812975    0.4000
46     H46    -2.0943  -12.8694    2.4000 H        1 ZINC000003812975    0.0800
47     H47    -3.5682  -12.4856    1.4788 H        1 ZINC000003812975    0.0800
48     H48    -4.0423  -13.6001   -0.6277 H        1 ZINC000003812975    0.1200
49     H49    -3.7140  -15.6215   -1.9950 H        1 ZINC000003812975    0.1300
50     H50    -1.7892  -17.0969   -1.5689 H        1 ZINC000003812975    0.1300
51     H51    -0.1923  -16.5505    0.2240 H        1 ZINC000003812975    0.1300
52     H52    -0.5180  -14.5267    1.5883 H        1 ZINC000003812975    0.1300
53     H53    -1.3073   -7.6886   -1.1413 H        1 ZINC000003812975    0.1300
54     H54    -2.3115   -6.4020   -0.4310 H        1 ZINC000003812975    0.1400
55     H55     0.8890   -7.1453   -2.0125 H        1 ZINC000003812975    0.1300
56     H56     1.4267   -5.4488   -2.0491 H        1 ZINC000003812975    0.1300
57     H57     1.3046   -6.3105   -0.4964 H        1 ZINC000003812975    0.1300
58     H58     0.0182    0.3859    2.9352 H        1 ZINC000003812975    0.1300
59     H59     0.0642   -1.6210    4.3564 H        1 ZINC000003812975    0.1300
60     H60     0.0989   -3.9072    3.4807 H        1 ZINC000003812975    0.1300
@<TRIPOS>BOND
1     1     2     1
2     1     35    1
3     1     36    1
4     1     37    1
5     2     31    1
6     2     3     1
7     3     4     2
8     3     38    1
9     4     30    1
10    4     5     1
11    5     6     1
12    5     39    1
13    5     40    1
14    6     7     1
15    6     26    1
16    6     8     1
17    8     9     1
18    8     10    1
19    8     29    1
20    10    11    1
21    10    41    1
22    10    42    1
23    11    12    1
24    11    13    1
25    11    25    1
26    13    14    1
27    13    43    1
28    13    44    1
29    14    15    am
30    14    45    1
31    15    16    2
32    15    17    1
33    17    18    1
34    18    19    1
35    18    46    1
36    18    47    1
37    19    24    ar
38    19    20    ar
39    20    21    ar
40    20    48    1
41    21    22    ar
42    21    49    1
43    22    23    ar
44    22    50    1
45    23    24    ar
46    23    51    1
47    24    52    1
48    25    26    1
49    25    53    1
50    25    54    1
51    26    27    1
52    26    28    1
53    28    55    1
54    28    56    1
55    28    57    1
56    29    34    ar
57    29    30    ar
58    30    31    ar
59    31    32    ar
60    32    33    ar
61    32    58    1
62    33    34    ar
63    33    59    1
64    34    60    1
@<TRIPOS>SUBSTRUCTURE
1   ZINC000003812975 1     RESIDUE    1   A     ZIN   1
