@<TRIPOS>MOLECULE
ZINC000004213820
84    89    1     0     0
SMALL
USER_CHARGES
@<TRIPOS>ATOM
1      C1      1.3537    1.4967   -0.1915 C.3      1 ZINC000004213820    0.0000
2      O2      1.4971    0.0533   -0.2574 O.3      1 ZINC000004213820   -0.3000
3      C3      0.5367   -0.6257   -0.9042 C.2      1 ZINC000004213820    0.3800
4      O4     -0.3291   -0.0286   -1.4991 O.2      1 ZINC000004213820   -0.3400
5      C5      0.5383   -2.1326   -0.8885 C.3      1 ZINC000004213820   -0.0700
6      H6      1.0075   -2.4854    0.0299 H        1 ZINC000004213820    0.1200
7      C7      1.3232   -2.6539   -2.0944 C.3      1 ZINC000004213820   -0.0700
8      H8      1.3457   -3.7434   -2.0727 H        1 ZINC000004213820    0.1000
9      C9      2.7551   -2.1085   -2.0316 C.3      1 ZINC000004213820   -0.1000
10     C10     2.7049   -0.5814   -2.1039 C.3      1 ZINC000004213820   -0.0400
11     H11     2.1262   -0.1954   -1.2646 H        1 ZINC000004213820    0.2100
12     C12     4.1027   -0.0169   -2.0551 C.2      1 ZINC000004213820    0.1100
13     C13     4.5174    0.9857   -2.8641 C.2      1 ZINC000004213820   -0.1900
14     C14     3.6360    1.6422   -3.8965 C.3      1 ZINC000004213820   -0.0400
15     C15     2.1788    1.2716   -3.5872 C.3      1 ZINC000004213820    0.0500
16     N16     2.0711   -0.1751   -3.3664 N.3      1 ZINC000004213820   -0.5200
17     C17     0.6793   -0.6357   -3.4382 C.3      1 ZINC000004213820   -0.0800
18     C18     0.6530   -2.1800   -3.3857 C.3      1 ZINC000004213820   -0.0700
19     H19     1.2046   -2.5795   -4.2367 H        1 ZINC000004213820    0.0800
20     C20    -0.7919   -2.6744   -3.4419 C.3      1 ZINC000004213820   -0.1100
21     C21    -1.5663   -2.1399   -2.2356 C.3      1 ZINC000004213820    0.0300
22     H22    -2.5957   -2.4958   -2.2774 H        1 ZINC000004213820    0.1000
23     O23    -1.5544   -0.6881   -2.2568 O.3      1 ZINC000004213820   -0.2400
24     C24    -2.6603   -0.0607   -1.8106 C.2      1 ZINC000004213820    0.4700
25     O25    -3.5664   -0.7032   -1.3183 O.2      1 ZINC000004213820   -0.5100
26     C26    -2.7709    1.4059   -1.9199 C.ar     1 ZINC000004213820   -0.0400
27     C27    -1.7863    2.1339   -2.5938 C.ar     1 ZINC000004213820   -0.1800
28     C28    -1.8927    3.5081   -2.6951 C.ar     1 ZINC000004213820    0.1300
29     O29    -0.9353    4.2172   -3.3511 O.3      1 ZINC000004213820   -0.3000
30     C30     0.0915    3.4694   -4.0057 C.3      1 ZINC000004213820    0.0100
31     C31    -2.9795    4.1674   -2.1266 C.ar     1 ZINC000004213820    0.0600
32     O32    -3.0816    5.5186   -2.2277 O.3      1 ZINC000004213820   -0.3100
33     C33    -3.7787    6.0333   -3.3641 C.3      1 ZINC000004213820    0.0400
34     C34    -3.9621    3.4446   -1.4551 C.ar     1 ZINC000004213820    0.1400
35     O35    -5.0227    4.0916   -0.9018 O.3      1 ZINC000004213820   -0.3000
36     C36    -5.9932    3.2880   -0.2277 C.3      1 ZINC000004213820    0.0200
37     C37    -3.8633    2.0697   -1.3549 C.ar     1 ZINC000004213820   -0.1800
38     C38    -0.9017   -2.6440   -0.9537 C.3      1 ZINC000004213820    0.1000
39     H39    -1.4510   -2.2719   -0.0889 H        1 ZINC000004213820    0.0700
40     O40    -0.9081   -4.0730   -0.9437 O.3      1 ZINC000004213820   -0.3600
41     C41    -2.0681   -4.6448   -0.3359 C.3      1 ZINC000004213820    0.0300
42     C42     5.8972    1.2611   -2.5300 C.ar     1 ZINC000004213820   -0.0500
43     C43     6.8290    2.1790   -3.0249 C.ar     1 ZINC000004213820   -0.1100
44     C44     8.0910    2.1602   -2.4491 C.ar     1 ZINC000004213820    0.1000
45     O45     9.0338    3.0332   -2.8945 O.3      1 ZINC000004213820   -0.3200
46     C46    10.3180    2.9754   -2.2704 C.3      1 ZINC000004213820    0.0300
47     C47     8.4189    1.2740   -1.4306 C.ar     1 ZINC000004213820   -0.1900
48     C48     7.5101    0.3584   -0.9299 C.ar     1 ZINC000004213820   -0.0900
49     C49     6.2352    0.3567   -1.4900 C.ar     1 ZINC000004213820    0.0600
50     N50     5.1258   -0.4011   -1.2325 N.pl3    1 ZINC000004213820   -0.5800
51     H51     1.4220    1.9148   -1.1957 H        1 ZINC000004213820    0.0800
52     H52     0.3847    1.7461    0.2408 H        1 ZINC000004213820    0.0800
53     H53     2.1467    1.9126    0.4300 H        1 ZINC000004213820    0.1100
54     H54     3.2219   -2.4148   -1.0955 H        1 ZINC000004213820    0.0700
55     H55     3.3305   -2.4953   -2.8727 H        1 ZINC000004213820    0.0700
56     H56     3.7581    2.7244   -3.8499 H        1 ZINC000004213820    0.0700
57     H57     3.9037    1.2837   -4.8904 H        1 ZINC000004213820    0.0700
58     H58     1.8528    1.7975   -2.6898 H        1 ZINC000004213820    0.0400
59     H59     1.5451    1.5581   -4.4265 H        1 ZINC000004213820    0.0800
60     H60     0.1189   -0.2346   -2.5937 H        1 ZINC000004213820    0.1900
61     H61     0.2299   -0.2930   -4.3703 H        1 ZINC000004213820    0.0700
62     H62    -1.2610   -2.3203   -4.3599 H        1 ZINC000004213820    0.0800
63     H63    -0.8033   -3.7642   -3.4264 H        1 ZINC000004213820    0.0900
64     H64    -0.9430    1.6231   -3.0346 H        1 ZINC000004213820    0.1500
65     H65    -0.3451    2.8838   -4.8148 H        1 ZINC000004213820    0.0600
66     H66     0.8358    4.1536   -4.4131 H        1 ZINC000004213820    0.1100
67     H67     0.5671    2.8003   -3.2886 H        1 ZINC000004213820    0.0600
68     H68    -3.7872    7.1225   -3.3225 H        1 ZINC000004213820    0.1000
69     H69    -3.2772    5.7085   -4.2757 H        1 ZINC000004213820    0.0500
70     H70    -4.8033    5.6616   -3.3608 H        1 ZINC000004213820    0.0500
71     H71    -6.7838    3.9268    0.1659 H        1 ZINC000004213820    0.1100
72     H72    -6.4208    2.5706   -0.9282 H        1 ZINC000004213820    0.0600
73     H73    -5.5154    2.7535    0.5933 H        1 ZINC000004213820    0.0600
74     H74    -4.6259    1.5095   -0.8342 H        1 ZINC000004213820    0.1500
75     H75    -2.9579   -4.3230   -0.8771 H        1 ZINC000004213820    0.0500
76     H76    -1.9967   -5.7320   -0.3681 H        1 ZINC000004213820    0.0900
77     H77    -2.1347   -4.3156    0.7010 H        1 ZINC000004213820    0.0500
78     H78     6.5783    2.8689   -3.8171 H        1 ZINC000004213820    0.1300
79     H79    10.9735    3.7224   -2.7181 H        1 ZINC000004213820    0.1000
80     H80    10.2132    3.1762   -1.2042 H        1 ZINC000004213820    0.0500
81     H81    10.7468    1.9835   -2.4129 H        1 ZINC000004213820    0.0500
82     H82     9.4159    1.3004   -1.0162 H        1 ZINC000004213820    0.1300
83     H83     7.7783   -0.3258   -0.1385 H        1 ZINC000004213820    0.1300
84     H84     5.0729   -1.1055   -0.5677 H        1 ZINC000004213820    0.4100
@<TRIPOS>BOND
1     1     2     1
2     1     51    1
3     1     52    1
4     1     53    1
5     2     3     1
6     3     4     2
7     3     5     1
8     5     6     1
9     5     38    1
10    5     7     1
11    7     8     1
12    7     18    1
13    7     9     1
14    9     10    1
15    9     54    1
16    9     55    1
17    10    11    1
18    10    16    1
19    10    12    1
20    12    50    1
21    12    13    2
22    13    14    1
23    13    42    1
24    14    15    1
25    14    56    1
26    14    57    1
27    15    16    1
28    15    58    1
29    15    59    1
30    16    17    1
31    17    18    1
32    17    60    1
33    17    61    1
34    18    19    1
35    18    20    1
36    20    21    1
37    20    62    1
38    20    63    1
39    21    22    1
40    21    23    1
41    21    38    1
42    23    24    1
43    24    25    2
44    24    26    1
45    26    37    ar
46    26    27    ar
47    27    28    ar
48    27    64    1
49    28    29    1
50    28    31    ar
51    29    30    1
52    30    65    1
53    30    66    1
54    30    67    1
55    31    32    1
56    31    34    ar
57    32    33    1
58    33    68    1
59    33    69    1
60    33    70    1
61    34    35    1
62    34    37    ar
63    35    36    1
64    36    71    1
65    36    72    1
66    36    73    1
67    37    74    1
68    38    39    1
69    38    40    1
70    40    41    1
71    41    75    1
72    41    76    1
73    41    77    1
74    42    49    ar
75    42    43    ar
76    43    44    ar
77    43    78    1
78    44    45    1
79    44    47    ar
80    45    46    1
81    46    79    1
82    46    80    1
83    46    81    1
84    47    48    ar
85    47    82    1
86    48    49    ar
87    48    83    1
88    49    50    1
89    50    84    1
@<TRIPOS>SUBSTRUCTURE
1   ZINC000004213820 1     RESIDUE    1   A     ZIN   1
