MODEL 1
REMARK VINA RESULT:      -8.5      0.000      0.000
REMARK  Name = ZINC000100378061
REMARK  10 active torsions:
REMARK  status: ('A' for Active; 'I' for Inactive)
REMARK    1  A    between atoms: C1_1  and  C2_2
REMARK    2  A    between atoms: C2_2  and  C3_3
REMARK    3  A    between atoms: C2_2  and  N4_4
REMARK    4  A    between atoms: C2_2  and  C35_35
REMARK    5  A    between atoms: C5_5  and  C7_7
REMARK    6  A    between atoms: C9_9  and  O10_10
REMARK    7  A    between atoms: C17_17  and  O18_18
REMARK    8  A    between atoms: N29_29  and  C31_31
REMARK    9  A    between atoms: C31_31  and  C32_32
REMARK   10  A    between atoms: C37_37  and  C38_38
REMARK                            x       y       z     vdW  Elec       q    Type
REMARK                         _______ _______ _______ _____ _____    ______ ____
ROOT
ATOM      1  C   UNL     1       5.981  -3.596 -32.424  0.00  0.00    +0.000 C 
ATOM      2  C   UNL     1       6.635  -4.847 -33.012  0.00  0.00    +0.100 C 
ATOM      3  C   UNL     1       7.968  -4.453 -33.646  0.00  0.00    +0.150 C 
ATOM      4  C   UNL     1       8.665  -5.691 -34.216  0.00  0.00    +0.160 C 
ATOM      5  C   UNL     1       7.849  -6.449 -35.248  0.00  0.00    +0.140 C 
ATOM      6  C   UNL     1       6.959  -5.572 -36.066  0.00  0.00    -0.060 A 
ATOM      7  C   UNL     1       6.930  -4.220 -35.814  0.00  0.00    -0.190 A 
ATOM      8  C   UNL     1       6.066  -3.306 -36.400  0.00  0.00    +0.100 A 
ATOM      9  O   UNL     1       6.200  -2.096 -35.815  0.00  0.00    -0.260 OA
ATOM     10  C   UNL     1       6.876  -2.263 -34.532  0.00  0.00    +0.240 C 
ATOM     11  C   UNL     1       5.215  -3.766 -37.410  0.00  0.00    +0.120 A 
ATOM     12  C   UNL     1       5.286  -5.121 -37.730  0.00  0.00    +0.050 A 
ATOM     13  C   UNL     1       6.124  -6.012 -37.080  0.00  0.00    +0.030 A 
ATOM     14  N   UNL     1       9.956  -5.299 -34.792  0.00  0.00    -0.370 N 
ATOM     15  H   UNL     1      10.532  -4.843 -34.101  0.00  0.00    +0.430 HD
ATOM     16  C   UNL     1       9.757  -4.407 -35.906  0.00  0.00    +0.260 C 
ATOM     17  C   UNL     1       9.082  -3.119 -35.416  0.00  0.00    +0.110 C 
ATOM     18  C   UNL     1       7.736  -3.487 -34.796  0.00  0.00    -0.030 C 
ATOM     19  C   UNL     1       5.811  -2.556 -33.490  0.00  0.00    +0.340 C 
ATOM     20  O   UNL     1       4.790  -1.911 -33.514  0.00  0.00    -0.390 OA
ENDROOT
BRANCH   1  23
ATOM     21  N   UNL     1       3.636  -4.342 -32.681  0.00  0.00    -0.710 N 
ATOM     22  H   UNL     1       3.789  -4.388 -33.637  0.00  0.00    +0.410 HD
ATOM     23  C   UNL     1       4.632  -3.956 -31.858  0.00  0.00    +0.540 C 
ATOM     24  O   UNL     1       4.441  -3.899 -30.660  0.00  0.00    -0.520 OA
BRANCH  21  26
ATOM     25  C   UNL     1       1.347  -4.968 -33.274  0.00  0.00    +0.090 C 
ATOM     26  C   UNL     1       2.325  -4.692 -32.130  0.00  0.00    +0.280 C 
ATOM     27  C   UNL     1       2.455  -5.942 -31.258  0.00  0.00    +0.090 C 
BRANCH  26  28
ATOM     28  C   UNL     1       1.810  -3.548 -31.294  0.00  0.00    +0.170 A 
ATOM     29  N   UNL     1       1.478  -3.596 -30.028  0.00  0.00    -0.450 NA
ATOM     30  C   UNL     1       1.078  -2.345 -29.710  0.00  0.00    +0.230 A 
ATOM     31  N   UNL     1       1.188  -1.617 -30.790  0.00  0.00    -0.370 NA
ATOM     32  O   UNL     1       1.611  -2.291 -31.705  0.00  0.00    +0.080 OA
BRANCH  30  33
ATOM     33  C   UNL     1       0.601  -1.884 -28.382  0.00  0.00    -0.030 A 
ATOM     34  C   UNL     1       1.336  -0.943 -27.664  0.00  0.00    +0.070 A 
ATOM     35  C   UNL     1       0.888  -0.517 -26.429  0.00  0.00    +0.010 A 
ATOM     36  C   UNL     1      -0.287  -1.023 -25.905  0.00  0.00    +0.040 A 
ATOM     37  C   UNL     1      -1.021  -1.958 -26.614  0.00  0.00    +0.010 A 
ATOM     38  C   UNL     1      -0.585  -2.386 -27.852  0.00  0.00    +0.050 A 
ENDBRANCH  30  33
ENDBRANCH  26  28
ENDBRANCH  21  26
ENDBRANCH   1  23
BRANCH  11  39
ATOM     39  O   UNL     1       4.355  -2.930 -38.051  0.00  0.00    -0.480 OA
ATOM     40  H   UNL     1       4.360  -3.024 -39.014  0.00  0.00    +0.400 HD
ENDBRANCH  11  39
BRANCH   3  41
ATOM     41  O   UNL     1       8.800  -3.834 -32.662  0.00  0.00    -0.540 OA
ATOM     42  H   UNL     1       8.356  -3.668 -31.819  0.00  0.00    +0.400 HD
ENDBRANCH   3  41
BRANCH  14  43
ATOM     43  C   UNL     1      10.634  -6.514 -35.261  0.00  0.00    +0.280 C 
BRANCH  43  44
ATOM     44  C   UNL     1      11.124  -6.305 -36.695  0.00  0.00    -0.080 C 
ATOM     45  C   UNL     1      12.042  -7.374 -37.292  0.00  0.00    +0.050 C 
ATOM     46  C   UNL     1      10.593  -7.254 -37.770  0.00  0.00    +0.070 C 
ENDBRANCH  43  44
ENDBRANCH  14  43
TORSDOF 8
ENDMDL
MODEL 2
REMARK VINA RESULT:      -8.4     19.818     25.505
REMARK  Name = ZINC000100378061
REMARK  10 active torsions:
REMARK  status: ('A' for Active; 'I' for Inactive)
REMARK    1  A    between atoms: C1_1  and  C2_2
REMARK    2  A    between atoms: C2_2  and  C3_3
REMARK    3  A    between atoms: C2_2  and  N4_4
REMARK    4  A    between atoms: C2_2  and  C35_35
REMARK    5  A    between atoms: C5_5  and  C7_7
REMARK    6  A    between atoms: C9_9  and  O10_10
REMARK    7  A    between atoms: C17_17  and  O18_18
REMARK    8  A    between atoms: N29_29  and  C31_31
REMARK    9  A    between atoms: C31_31  and  C32_32
REMARK   10  A    between atoms: C37_37  and  C38_38
REMARK                            x       y       z     vdW  Elec       q    Type
REMARK                         _______ _______ _______ _____ _____    ______ ____
ROOT
ATOM      1  C   UNL     1      -3.378  19.305 -29.379  0.00  0.00    +0.000 C 
ATOM      2  C   UNL     1      -4.656  19.709 -28.644  0.00  0.00    +0.100 C 
ATOM      3  C   UNL     1      -4.275  20.321 -27.296  0.00  0.00    +0.150 C 
ATOM      4  C   UNL     1      -5.533  20.768 -26.548  0.00  0.00    +0.160 C 
ATOM      5  C   UNL     1      -6.543  19.661 -26.303  0.00  0.00    +0.140 C 
ATOM      6  C   UNL     1      -5.920  18.317 -26.109  0.00  0.00    -0.060 A 
ATOM      7  C   UNL     1      -4.553  18.192 -26.191  0.00  0.00    -0.190 A 
ATOM      8  C   UNL     1      -3.847  16.997 -26.161  0.00  0.00    +0.100 A 
ATOM      9  O   UNL     1      -2.541  17.221 -26.420  0.00  0.00    -0.260 OA
ATOM     10  C   UNL     1      -2.400  18.535 -27.039  0.00  0.00    +0.240 C 
ATOM     11  C   UNL     1      -4.564  15.820 -25.925  0.00  0.00    +0.120 A 
ATOM     12  C   UNL     1      -5.944  15.941 -25.765  0.00  0.00    +0.050 A 
ATOM     13  C   UNL     1      -6.617  17.147 -25.859  0.00  0.00    +0.030 A 
ATOM     14  N   UNL     1      -5.147  21.380 -25.271  0.00  0.00    -0.370 N 
ATOM     15  H   UNL     1      -4.519  22.155 -25.422  0.00  0.00    +0.430 HD
ATOM     16  C   UNL     1      -4.505  20.407 -24.423  0.00  0.00    +0.260 C 
ATOM     17  C   UNL     1      -3.212  19.922 -25.090  0.00  0.00    +0.110 C 
ATOM     18  C   UNL     1      -3.571  19.287 -26.432  0.00  0.00    -0.030 C 
ATOM     19  C   UNL     1      -2.579  18.356 -28.536  0.00  0.00    +0.340 C 
ATOM     20  O   UNL     1      -2.043  17.415 -29.071  0.00  0.00    -0.390 OA
ENDROOT
BRANCH   1  23
ATOM     21  N   UNL     1      -4.519  17.535 -30.677  0.00  0.00    -0.710 N 
ATOM     22  H   UNL     1      -4.847  17.175 -29.839  0.00  0.00    +0.410 HD
ATOM     23  C   UNL     1      -3.739  18.635 -30.679  0.00  0.00    +0.540 C 
ATOM     24  O   UNL     1      -3.329  19.086 -31.728  0.00  0.00    -0.520 OA
BRANCH  21  26
ATOM     25  C   UNL     1      -5.945  15.825 -31.690  0.00  0.00    +0.090 C 
ATOM     26  C   UNL     1      -4.870  16.884 -31.942  0.00  0.00    +0.280 C 
ATOM     27  C   UNL     1      -5.406  17.930 -32.922  0.00  0.00    +0.090 C 
BRANCH  26  28
ATOM     28  C   UNL     1      -3.646  16.229 -32.526  0.00  0.00    +0.170 A 
ATOM     29  N   UNL     1      -2.770  15.499 -31.880  0.00  0.00    -0.450 NA
ATOM     30  C   UNL     1      -1.855  15.127 -32.804  0.00  0.00    +0.230 A 
ATOM     31  N   UNL     1      -2.225  15.648 -33.945  0.00  0.00    -0.370 NA
ATOM     32  O   UNL     1      -3.251  16.278 -33.803  0.00  0.00    +0.080 OA
BRANCH  30  33
ATOM     33  C   UNL     1      -0.656  14.286 -32.567  0.00  0.00    -0.030 A 
ATOM     34  C   UNL     1      -0.799  12.984 -32.092  0.00  0.00    +0.070 A 
ATOM     35  C   UNL     1       0.320  12.205 -31.873  0.00  0.00    +0.010 A 
ATOM     36  C   UNL     1       1.581  12.715 -32.126  0.00  0.00    +0.040 A 
ATOM     37  C   UNL     1       1.728  14.007 -32.598  0.00  0.00    +0.010 A 
ATOM     38  C   UNL     1       0.616  14.792 -32.826  0.00  0.00    +0.050 A 
ENDBRANCH  30  33
ENDBRANCH  26  28
ENDBRANCH  21  26
ENDBRANCH   1  23
BRANCH  11  39
ATOM     39  O   UNL     1      -3.945  14.612 -25.856  0.00  0.00    -0.480 OA
ATOM     40  H   UNL     1      -4.533  13.880 -25.624  0.00  0.00    +0.400 HD
ENDBRANCH  11  39
BRANCH   3  41
ATOM     41  O   UNL     1      -3.409  21.439 -27.506  0.00  0.00    -0.540 OA
ATOM     42  H   UNL     1      -2.468  21.215 -27.497  0.00  0.00    +0.400 HD
ENDBRANCH   3  41
BRANCH  14  43
ATOM     43  C   UNL     1      -6.365  21.868 -24.612  0.00  0.00    +0.280 C 
BRANCH  43  44
ATOM     44  C   UNL     1      -6.458  21.272 -23.206  0.00  0.00    -0.080 C 
ATOM     45  C   UNL     1      -7.465  21.897 -22.238  0.00  0.00    +0.050 C 
ATOM     46  C   UNL     1      -7.738  20.518 -22.841  0.00  0.00    +0.070 C 
ENDBRANCH  43  44
ENDBRANCH  14  43
TORSDOF 8
ENDMDL
MODEL 3
REMARK VINA RESULT:      -8.3      2.779     11.159
REMARK  Name = ZINC000100378061
REMARK  10 active torsions:
REMARK  status: ('A' for Active; 'I' for Inactive)
REMARK    1  A    between atoms: C1_1  and  C2_2
REMARK    2  A    between atoms: C2_2  and  C3_3
REMARK    3  A    between atoms: C2_2  and  N4_4
REMARK    4  A    between atoms: C2_2  and  C35_35
REMARK    5  A    between atoms: C5_5  and  C7_7
REMARK    6  A    between atoms: C9_9  and  O10_10
REMARK    7  A    between atoms: C17_17  and  O18_18
REMARK    8  A    between atoms: N29_29  and  C31_31
REMARK    9  A    between atoms: C31_31  and  C32_32
REMARK   10  A    between atoms: C37_37  and  C38_38
REMARK                            x       y       z     vdW  Elec       q    Type
REMARK                         _______ _______ _______ _____ _____    ______ ____
ROOT
ATOM      1  C   UNL     1       2.374  -1.960 -29.130  0.00  0.00    +0.000 C 
ATOM      2  C   UNL     1       0.943  -1.769 -28.624  0.00  0.00    +0.100 C 
ATOM      3  C   UNL     1       0.983  -1.534 -27.115  0.00  0.00    +0.150 C 
ATOM      4  C   UNL     1      -0.433  -1.306 -26.582  0.00  0.00    +0.160 C 
ATOM      5  C   UNL     1      -1.400  -2.443 -26.864  0.00  0.00    +0.140 C 
ATOM      6  C   UNL     1      -0.749  -3.788 -26.886  0.00  0.00    -0.060 A 
ATOM      7  C   UNL     1       0.609  -3.881 -26.685  0.00  0.00    -0.190 A 
ATOM      8  C   UNL     1       1.366  -5.038 -26.803  0.00  0.00    +0.100 A 
ATOM      9  O   UNL     1       2.680  -4.748 -26.694  0.00  0.00    -0.260 OA
ATOM     10  C   UNL     1       2.868  -3.316 -26.907  0.00  0.00    +0.240 C 
ATOM     11  C   UNL     1       0.692  -6.239 -27.046  0.00  0.00    +0.120 A 
ATOM     12  C   UNL     1      -0.695  -6.171 -27.177  0.00  0.00    +0.050 A 
ATOM     13  C   UNL     1      -1.407  -4.985 -27.108  0.00  0.00    +0.030 A 
ATOM     14  N   UNL     1      -0.374  -1.051 -25.137  0.00  0.00    -0.370 N 
ATOM     15  H   UNL     1       0.221  -0.261 -24.939  0.00  0.00    +0.430 HD
ATOM     16  C   UNL     1       0.130  -2.211 -24.445  0.00  0.00    +0.260 C 
ATOM     17  C   UNL     1       1.565  -2.497 -24.904  0.00  0.00    +0.110 C 
ATOM     18  C   UNL     1       1.547  -2.756 -26.409  0.00  0.00    -0.030 C 
ATOM     19  C   UNL     1       3.030  -3.094 -28.401  0.00  0.00    +0.340 C 
ATOM     20  O   UNL     1       3.728  -3.857 -29.023  0.00  0.00    -0.390 OA
ENDROOT
BRANCH   1  23
ATOM     21  N   UNL     1       3.491  -2.246 -31.319  0.00  0.00    -0.710 N 
ATOM     22  H   UNL     1       4.331  -2.038 -30.881  0.00  0.00    +0.410 HD
ATOM     23  C   UNL     1       2.347  -2.264 -30.605  0.00  0.00    +0.540 C 
ATOM     24  O   UNL     1       1.295  -2.525 -31.151  0.00  0.00    -0.520 OA
BRANCH  21  26
ATOM     25  C   UNL     1       2.944  -3.964 -32.972  0.00  0.00    +0.090 C 
ATOM     26  C   UNL     1       3.464  -2.542 -32.753  0.00  0.00    +0.280 C 
ATOM     27  C   UNL     1       2.542  -1.547 -33.461  0.00  0.00    +0.090 C 
BRANCH  26  28
ATOM     28  C   UNL     1       4.857  -2.424 -33.316  0.00  0.00    +0.170 A 
ATOM     29  N   UNL     1       5.838  -3.276 -33.151  0.00  0.00    -0.450 NA
ATOM     30  C   UNL     1       6.885  -2.760 -33.833  0.00  0.00    +0.230 A 
ATOM     31  N   UNL     1       6.483  -1.636 -34.367  0.00  0.00    -0.370 NA
ATOM     32  O   UNL     1       5.322  -1.433 -34.084  0.00  0.00    +0.080 OA
BRANCH  30  33
ATOM     33  C   UNL     1       8.238  -3.357 -33.953  0.00  0.00    -0.030 A 
ATOM     34  C   UNL     1       8.971  -3.198 -35.127  0.00  0.00    +0.070 A 
ATOM     35  C   UNL     1      10.230  -3.756 -35.233  0.00  0.00    +0.010 A 
ATOM     36  C   UNL     1      10.763  -4.472 -34.177  0.00  0.00    +0.040 A 
ATOM     37  C   UNL     1      10.040  -4.633 -33.009  0.00  0.00    +0.010 A 
ATOM     38  C   UNL     1       8.783  -4.074 -32.889  0.00  0.00    +0.050 A 
ENDBRANCH  30  33
ENDBRANCH  26  28
ENDBRANCH  21  26
ENDBRANCH   1  23
BRANCH  11  39
ATOM     39  O   UNL     1       1.358  -7.419 -27.151  0.00  0.00    -0.480 OA
ATOM     40  H   UNL     1       2.208  -7.434 -26.690  0.00  0.00    +0.400 HD
ENDBRANCH  11  39
BRANCH   3  41
ATOM     41  O   UNL     1       1.801  -0.396 -26.830  0.00  0.00    -0.540 OA
ATOM     42  H   UNL     1       2.310  -0.474 -26.011  0.00  0.00    +0.400 HD
ENDBRANCH   3  41
BRANCH  14  43
ATOM     43  C   UNL     1      -1.735  -0.761 -24.669  0.00  0.00    +0.280 C 
BRANCH  43  44
ATOM     44  C   UNL     1      -2.029  -1.584 -23.413  0.00  0.00    -0.080 C 
ATOM     45  C   UNL     1      -3.099  -1.055 -22.456  0.00  0.00    +0.050 C 
ATOM     46  C   UNL     1      -3.387  -2.280 -23.325  0.00  0.00    +0.070 C 
ENDBRANCH  43  44
ENDBRANCH  14  43
TORSDOF 8
ENDMDL
MODEL 4
REMARK VINA RESULT:      -8.3     25.918     31.482
REMARK  Name = ZINC000100378061
REMARK  10 active torsions:
REMARK  status: ('A' for Active; 'I' for Inactive)
REMARK    1  A    between atoms: C1_1  and  C2_2
REMARK    2  A    between atoms: C2_2  and  C3_3
REMARK    3  A    between atoms: C2_2  and  N4_4
REMARK    4  A    between atoms: C2_2  and  C35_35
REMARK    5  A    between atoms: C5_5  and  C7_7
REMARK    6  A    between atoms: C9_9  and  O10_10
REMARK    7  A    between atoms: C17_17  and  O18_18
REMARK    8  A    between atoms: N29_29  and  C31_31
REMARK    9  A    between atoms: C31_31  and  C32_32
REMARK   10  A    between atoms: C37_37  and  C38_38
REMARK                            x       y       z     vdW  Elec       q    Type
REMARK                         _______ _______ _______ _____ _____    ______ ____
ROOT
ATOM      1  C   UNL     1     -23.104  -7.597 -25.079  0.00  0.00    +0.000 C 
ATOM      2  C   UNL     1     -23.196  -6.884 -23.729  0.00  0.00    +0.100 C 
ATOM      3  C   UNL     1     -24.476  -7.331 -23.024  0.00  0.00    +0.150 C 
ATOM      4  C   UNL     1     -24.582  -6.659 -21.653  0.00  0.00    +0.160 C 
ATOM      5  C   UNL     1     -24.564  -5.141 -21.695  0.00  0.00    +0.140 C 
ATOM      6  C   UNL     1     -25.189  -4.572 -22.927  0.00  0.00    -0.060 A 
ATOM      7  C   UNL     1     -25.681  -5.424 -23.887  0.00  0.00    -0.190 A 
ATOM      8  C   UNL     1     -26.169  -5.047 -25.130  0.00  0.00    +0.100 A 
ATOM      9  O   UNL     1     -26.425  -6.139 -25.882  0.00  0.00    -0.260 OA
ATOM     10  C   UNL     1     -25.726  -7.284 -25.306  0.00  0.00    +0.240 C 
ATOM     11  C   UNL     1     -26.270  -3.679 -25.405  0.00  0.00    +0.120 A 
ATOM     12  C   UNL     1     -25.844  -2.801 -24.411  0.00  0.00    +0.050 A 
ATOM     13  C   UNL     1     -25.310  -3.221 -23.204  0.00  0.00    +0.030 A 
ATOM     14  N   UNL     1     -25.800  -7.123 -20.978  0.00  0.00    -0.370 N 
ATOM     15  H   UNL     1     -25.799  -8.128 -20.891  0.00  0.00    +0.430 HD
ATOM     16  C   UNL     1     -26.968  -6.710 -21.713  0.00  0.00    +0.260 C 
ATOM     17  C   UNL     1     -26.956  -7.364 -23.101  0.00  0.00    +0.110 C 
ATOM     18  C   UNL     1     -25.693  -6.914 -23.834  0.00  0.00    -0.030 C 
ATOM     19  C   UNL     1     -24.327  -7.309 -25.897  0.00  0.00    +0.340 C 
ATOM     20  O   UNL     1     -24.198  -7.100 -27.079  0.00  0.00    -0.390 OA
ENDROOT
BRANCH   1  23
ATOM     21  N   UNL     1     -21.348  -7.865 -26.800  0.00  0.00    -0.710 N 
ATOM     22  H   UNL     1     -21.748  -8.718 -27.031  0.00  0.00    +0.410 HD
ATOM     23  C   UNL     1     -21.883  -7.113 -25.818  0.00  0.00    +0.540 C 
ATOM     24  O   UNL     1     -21.383  -6.046 -25.529  0.00  0.00    -0.520 OA
BRANCH  21  26
ATOM     25  C   UNL     1     -19.022  -7.161 -26.524  0.00  0.00    +0.090 C 
ATOM     26  C   UNL     1     -20.161  -7.395 -27.518  0.00  0.00    +0.280 C 
ATOM     27  C   UNL     1     -19.734  -8.447 -28.543  0.00  0.00    +0.090 C 
BRANCH  26  28
ATOM     28  C   UNL     1     -20.482  -6.104 -28.227  0.00  0.00    +0.170 A 
ATOM     29  N   UNL     1     -21.460  -5.904 -29.074  0.00  0.00    -0.450 NA
ATOM     30  C   UNL     1     -21.358  -4.608 -29.447  0.00  0.00    +0.230 A 
ATOM     31  N   UNL     1     -20.333  -4.103 -28.811  0.00  0.00    -0.370 NA
ATOM     32  O   UNL     1     -19.825  -4.946 -28.104  0.00  0.00    +0.080 OA
BRANCH  30  33
ATOM     33  C   UNL     1     -22.243  -3.894 -30.401  0.00  0.00    -0.030 A 
ATOM     34  C   UNL     1     -23.064  -2.861 -29.953  0.00  0.00    +0.070 A 
ATOM     35  C   UNL     1     -23.885  -2.200 -30.844  0.00  0.00    +0.010 A 
ATOM     36  C   UNL     1     -23.893  -2.560 -32.179  0.00  0.00    +0.040 A 
ATOM     37  C   UNL     1     -23.079  -3.585 -32.629  0.00  0.00    +0.010 A 
ATOM     38  C   UNL     1     -22.250  -4.249 -31.748  0.00  0.00    +0.050 A 
ENDBRANCH  30  33
ENDBRANCH  26  28
ENDBRANCH  21  26
ENDBRANCH   1  23
BRANCH  11  39
ATOM     39  O   UNL     1     -26.761  -3.227 -26.590  0.00  0.00    -0.480 OA
ATOM     40  H   UNL     1     -27.213  -3.903 -27.112  0.00  0.00    +0.400 HD
ENDBRANCH  11  39
BRANCH   3  41
ATOM     41  O   UNL     1     -24.467  -8.752 -22.872  0.00  0.00    -0.540 OA
ATOM     42  H   UNL     1     -23.581  -9.134 -22.794  0.00  0.00    +0.400 HD
ENDBRANCH   3  41
BRANCH  14  43
ATOM     43  C   UNL     1     -25.835  -6.523 -19.638  0.00  0.00    +0.280 C 
BRANCH  43  44
ATOM     44  C   UNL     1     -27.283  -6.450 -19.149  0.00  0.00    -0.080 C 
ATOM     45  C   UNL     1     -27.619  -7.143 -17.827  0.00  0.00    +0.050 C 
ATOM     46  C   UNL     1     -27.566  -5.615 -17.899  0.00  0.00    +0.070 C 
ENDBRANCH  43  44
ENDBRANCH  14  43
TORSDOF 8
ENDMDL
MODEL 5
REMARK VINA RESULT:      -8.2      4.213      8.163
REMARK  Name = ZINC000100378061
REMARK  10 active torsions:
REMARK  status: ('A' for Active; 'I' for Inactive)
REMARK    1  A    between atoms: C1_1  and  C2_2
REMARK    2  A    between atoms: C2_2  and  C3_3
REMARK    3  A    between atoms: C2_2  and  N4_4
REMARK    4  A    between atoms: C2_2  and  C35_35
REMARK    5  A    between atoms: C5_5  and  C7_7
REMARK    6  A    between atoms: C9_9  and  O10_10
REMARK    7  A    between atoms: C17_17  and  O18_18
REMARK    8  A    between atoms: N29_29  and  C31_31
REMARK    9  A    between atoms: C31_31  and  C32_32
REMARK   10  A    between atoms: C37_37  and  C38_38
REMARK                            x       y       z     vdW  Elec       q    Type
REMARK                         _______ _______ _______ _____ _____    ______ ____
ROOT
ATOM      1  C   UNL     1       2.532  -1.942 -33.123  0.00  0.00    +0.000 C 
ATOM      2  C   UNL     1       1.905  -2.479 -31.836  0.00  0.00    +0.100 C 
ATOM      3  C   UNL     1       2.898  -2.290 -30.690  0.00  0.00    +0.150 C 
ATOM      4  C   UNL     1       2.287  -2.789 -29.378  0.00  0.00    +0.160 C 
ATOM      5  C   UNL     1       1.853  -4.244 -29.402  0.00  0.00    +0.140 C 
ATOM      6  C   UNL     1       2.703  -5.105 -30.279  0.00  0.00    -0.060 A 
ATOM      7  C   UNL     1       3.740  -4.535 -30.980  0.00  0.00    -0.190 A 
ATOM      8  C   UNL     1       4.529  -5.178 -31.923  0.00  0.00    +0.100 A 
ATOM      9  O   UNL     1       5.347  -4.292 -32.529  0.00  0.00    -0.260 OA
ATOM     10  C   UNL     1       4.842  -2.943 -32.293  0.00  0.00    +0.240 C 
ATOM     11  C   UNL     1       4.330  -6.550 -32.116  0.00  0.00    +0.120 A 
ATOM     12  C   UNL     1       3.331  -7.157 -31.357  0.00  0.00    +0.050 A 
ATOM     13  C   UNL     1       2.528  -6.466 -30.465  0.00  0.00    +0.030 A 
ATOM     14  N   UNL     1       3.241  -2.572 -28.285  0.00  0.00    -0.370 N 
ATOM     15  H   UNL     1       3.495  -1.598 -28.220  0.00  0.00    +0.430 HD
ATOM     16  C   UNL     1       4.429  -3.360 -28.493  0.00  0.00    +0.260 C 
ATOM     17  C   UNL     1       5.124  -2.905 -29.783  0.00  0.00    +0.110 C 
ATOM     18  C   UNL     1       4.156  -3.104 -30.948  0.00  0.00    -0.030 C 
ATOM     19  C   UNL     1       3.835  -2.635 -33.388  0.00  0.00    +0.340 C 
ATOM     20  O   UNL     1       4.105  -2.950 -34.522  0.00  0.00    -0.390 OA
ENDROOT
BRANCH   1  23
ATOM     21  N   UNL     1       1.204  -3.441 -34.576  0.00  0.00    -0.710 N 
ATOM     22  H   UNL     1       1.529  -4.187 -34.048  0.00  0.00    +0.410 HD
ATOM     23  C   UNL     1       1.594  -2.185 -34.277  0.00  0.00    +0.540 C 
ATOM     24  O   UNL     1       1.188  -1.251 -34.936  0.00  0.00    -0.520 OA
BRANCH  21  26
ATOM     25  C   UNL     1       0.076  -2.370 -36.464  0.00  0.00    +0.090 C 
ATOM     26  C   UNL     1       0.292  -3.677 -35.697  0.00  0.00    +0.280 C 
ATOM     27  C   UNL     1       0.897  -4.724 -36.635  0.00  0.00    +0.090 C 
BRANCH  26  28
ATOM     28  C   UNL     1      -1.030  -4.175 -35.173  0.00  0.00    +0.170 A 
ATOM     29  N   UNL     1      -2.205  -3.989 -35.721  0.00  0.00    -0.450 NA
ATOM     30  C   UNL     1      -3.087  -4.611 -34.907  0.00  0.00    +0.230 A 
ATOM     31  N   UNL     1      -2.404  -5.133 -33.922  0.00  0.00    -0.370 NA
ATOM     32  O   UNL     1      -1.223  -4.897 -34.063  0.00  0.00    +0.080 OA
BRANCH  30  33
ATOM     33  C   UNL     1      -4.557  -4.687 -35.096  0.00  0.00    -0.030 A 
ATOM     34  C   UNL     1      -5.133  -5.830 -35.646  0.00  0.00    +0.070 A 
ATOM     35  C   UNL     1      -6.502  -5.895 -35.820  0.00  0.00    +0.010 A 
ATOM     36  C   UNL     1      -7.300  -4.829 -35.448  0.00  0.00    +0.040 A 
ATOM     37  C   UNL     1      -6.733  -3.691 -34.902  0.00  0.00    +0.010 A 
ATOM     38  C   UNL     1      -5.367  -3.618 -34.718  0.00  0.00    +0.050 A 
ENDBRANCH  30  33
ENDBRANCH  26  28
ENDBRANCH  21  26
ENDBRANCH   1  23
BRANCH  11  39
ATOM     39  O   UNL     1       5.077  -7.258 -33.004  0.00  0.00    -0.480 OA
ATOM     40  H   UNL     1       5.486  -6.717 -33.693  0.00  0.00    +0.400 HD
ENDBRANCH  11  39
BRANCH   3  41
ATOM     41  O   UNL     1       3.238  -0.907 -30.575  0.00  0.00    -0.540 OA
ATOM     42  H   UNL     1       3.667  -0.541 -31.361  0.00  0.00    +0.400 HD
ENDBRANCH   3  41
BRANCH  14  43
ATOM     43  C   UNL     1       2.599  -2.987 -27.031  0.00  0.00    +0.280 C 
BRANCH  43  44
ATOM     44  C   UNL     1       1.563  -1.941 -26.616  0.00  0.00    -0.080 C 
ATOM     45  C   UNL     1       0.120  -2.412 -26.425  0.00  0.00    +0.050 C 
ATOM     46  C   UNL     1       0.974  -2.048 -25.209  0.00  0.00    +0.070 C 
ENDBRANCH  43  44
ENDBRANCH  14  43
TORSDOF 8
ENDMDL
MODEL 6
REMARK VINA RESULT:      -8.1      2.199      4.356
REMARK  Name = ZINC000100378061
REMARK  10 active torsions:
REMARK  status: ('A' for Active; 'I' for Inactive)
REMARK    1  A    between atoms: C1_1  and  C2_2
REMARK    2  A    between atoms: C2_2  and  C3_3
REMARK    3  A    between atoms: C2_2  and  N4_4
REMARK    4  A    between atoms: C2_2  and  C35_35
REMARK    5  A    between atoms: C5_5  and  C7_7
REMARK    6  A    between atoms: C9_9  and  O10_10
REMARK    7  A    between atoms: C17_17  and  O18_18
REMARK    8  A    between atoms: N29_29  and  C31_31
REMARK    9  A    between atoms: C31_31  and  C32_32
REMARK   10  A    between atoms: C37_37  and  C38_38
REMARK                            x       y       z     vdW  Elec       q    Type
REMARK                         _______ _______ _______ _____ _____    ______ ____
ROOT
ATOM      1  C   UNL     1       5.926  -3.554 -32.430  0.00  0.00    +0.000 C 
ATOM      2  C   UNL     1       6.535  -4.834 -33.005  0.00  0.00    +0.100 C 
ATOM      3  C   UNL     1       7.907  -4.506 -33.590  0.00  0.00    +0.150 C 
ATOM      4  C   UNL     1       8.559  -5.775 -34.145  0.00  0.00    +0.160 C 
ATOM      5  C   UNL     1       7.741  -6.485 -35.209  0.00  0.00    +0.140 C 
ATOM      6  C   UNL     1       6.926  -5.559 -36.051  0.00  0.00    -0.060 A 
ATOM      7  C   UNL     1       6.957  -4.209 -35.790  0.00  0.00    -0.190 A 
ATOM      8  C   UNL     1       6.162  -3.249 -36.399  0.00  0.00    +0.100 A 
ATOM      9  O   UNL     1       6.338  -2.050 -35.802  0.00  0.00    -0.260 OA
ATOM     10  C   UNL     1       6.961  -2.258 -34.499  0.00  0.00    +0.240 C 
ATOM     11  C   UNL     1       5.323  -3.659 -37.441  0.00  0.00    +0.120 A 
ATOM     12  C   UNL     1       5.336  -5.014 -37.767  0.00  0.00    +0.050 A 
ATOM     13  C   UNL     1       6.105  -5.950 -37.095  0.00  0.00    +0.030 A 
ATOM     14  N   UNL     1       9.888  -5.447 -34.674  0.00  0.00    -0.370 N 
ATOM     15  H   UNL     1      10.462  -5.025 -33.961  0.00  0.00    +0.430 HD
ATOM     16  C   UNL     1       9.773  -4.540 -35.789  0.00  0.00    +0.260 C 
ATOM     17  C   UNL     1       9.149  -3.222 -35.313  0.00  0.00    +0.110 C 
ATOM     18  C   UNL     1       7.765  -3.523 -34.741  0.00  0.00    -0.030 C 
ATOM     19  C   UNL     1       5.847  -2.500 -33.495  0.00  0.00    +0.340 C 
ATOM     20  O   UNL     1       4.862  -1.804 -33.549  0.00  0.00    -0.390 OA
ENDROOT
BRANCH   1  23
ATOM     21  N   UNL     1       3.543  -4.121 -32.776  0.00  0.00    -0.710 N 
ATOM     22  H   UNL     1       3.717  -4.130 -33.730  0.00  0.00    +0.410 HD
ATOM     23  C   UNL     1       4.542  -3.846 -31.913  0.00  0.00    +0.540 C 
ATOM     24  O   UNL     1       4.326  -3.835 -30.719  0.00  0.00    -0.520 OA
BRANCH  21  26
ATOM     25  C   UNL     1       2.073  -5.899 -31.962  0.00  0.00    +0.090 C 
ATOM     26  C   UNL     1       2.198  -4.405 -32.272  0.00  0.00    +0.280 C 
ATOM     27  C   UNL     1       1.950  -3.598 -30.996  0.00  0.00    +0.090 C 
BRANCH  26  28
ATOM     28  C   UNL     1       1.180  -4.022 -33.315  0.00  0.00    +0.170 A 
ATOM     29  N   UNL     1       0.527  -4.840 -34.103  0.00  0.00    -0.450 NA
ATOM     30  C   UNL     1      -0.269  -4.054 -34.862  0.00  0.00    +0.230 A 
ATOM     31  N   UNL     1      -0.055  -2.818 -34.495  0.00  0.00    -0.370 NA
ATOM     32  O   UNL     1       0.768  -2.784 -33.606  0.00  0.00    +0.080 OA
BRANCH  30  33
ATOM     33  C   UNL     1      -1.210  -4.510 -35.916  0.00  0.00    -0.030 A 
ATOM     34  C   UNL     1      -2.497  -4.920 -35.574  0.00  0.00    +0.070 A 
ATOM     35  C   UNL     1      -3.368  -5.343 -36.558  0.00  0.00    +0.010 A 
ATOM     36  C   UNL     1      -2.965  -5.360 -37.881  0.00  0.00    +0.040 A 
ATOM     37  C   UNL     1      -1.688  -4.954 -38.226  0.00  0.00    +0.010 A 
ATOM     38  C   UNL     1      -0.811  -4.524 -37.251  0.00  0.00    +0.050 A 
ENDBRANCH  30  33
ENDBRANCH  26  28
ENDBRANCH  21  26
ENDBRANCH   1  23
BRANCH  11  39
ATOM     39  O   UNL     1       4.530  -2.777 -38.105  0.00  0.00    -0.480 OA
ATOM     40  H   UNL     1       5.014  -2.052 -38.524  0.00  0.00    +0.400 HD
ENDBRANCH  11  39
BRANCH   3  41
ATOM     41  O   UNL     1       8.736  -3.935 -32.574  0.00  0.00    -0.540 OA
ATOM     42  H   UNL     1       8.630  -2.980 -32.471  0.00  0.00    +0.400 HD
ENDBRANCH   3  41
BRANCH  14  43
ATOM     43  C   UNL     1      10.518  -6.693 -35.128  0.00  0.00    +0.280 C 
BRANCH  43  44
ATOM     44  C   UNL     1      11.070  -6.501 -36.542  0.00  0.00    -0.080 C 
ATOM     45  C   UNL     1      12.049  -7.553 -37.068  0.00  0.00    +0.050 C 
ATOM     46  C   UNL     1      10.622  -7.493 -37.616  0.00  0.00    +0.070 C 
ENDBRANCH  43  44
ENDBRANCH  14  43
TORSDOF 8
ENDMDL
MODEL 7
REMARK VINA RESULT:      -8.1      2.298      3.471
REMARK  Name = ZINC000100378061
REMARK  10 active torsions:
REMARK  status: ('A' for Active; 'I' for Inactive)
REMARK    1  A    between atoms: C1_1  and  C2_2
REMARK    2  A    between atoms: C2_2  and  C3_3
REMARK    3  A    between atoms: C2_2  and  N4_4
REMARK    4  A    between atoms: C2_2  and  C35_35
REMARK    5  A    between atoms: C5_5  and  C7_7
REMARK    6  A    between atoms: C9_9  and  O10_10
REMARK    7  A    between atoms: C17_17  and  O18_18
REMARK    8  A    between atoms: N29_29  and  C31_31
REMARK    9  A    between atoms: C31_31  and  C32_32
REMARK   10  A    between atoms: C37_37  and  C38_38
REMARK                            x       y       z     vdW  Elec       q    Type
REMARK                         _______ _______ _______ _____ _____    ______ ____
ROOT
ATOM      1  C   UNL     1       4.296  -3.190 -30.522  0.00  0.00    +0.000 C 
ATOM      2  C   UNL     1       4.664  -4.278 -31.532  0.00  0.00    +0.100 C 
ATOM      3  C   UNL     1       5.647  -3.694 -32.546  0.00  0.00    +0.150 C 
ATOM      4  C   UNL     1       6.062  -4.769 -33.554  0.00  0.00    +0.160 C 
ATOM      5  C   UNL     1       4.906  -5.395 -34.313  0.00  0.00    +0.140 C 
ATOM      6  C   UNL     1       3.771  -4.454 -34.554  0.00  0.00    -0.060 A 
ATOM      7  C   UNL     1       3.848  -3.169 -34.069  0.00  0.00    -0.190 A 
ATOM      8  C   UNL     1       2.828  -2.230 -34.103  0.00  0.00    +0.100 A 
ATOM      9  O   UNL     1       3.184  -1.129 -33.406  0.00  0.00    -0.260 OA
ATOM     10  C   UNL     1       4.306  -1.464 -32.534  0.00  0.00    +0.240 C 
ATOM     11  C   UNL     1       1.649  -2.569 -34.775  0.00  0.00    +0.120 A 
ATOM     12  C   UNL     1       1.585  -3.843 -35.337  0.00  0.00    +0.050 A 
ATOM     13  C   UNL     1       2.606  -4.772 -35.231  0.00  0.00    +0.030 A 
ATOM     14  N   UNL     1       7.029  -4.200 -34.500  0.00  0.00    -0.370 N 
ATOM     15  H   UNL     1       7.831  -3.830 -34.012  0.00  0.00    +0.430 HD
ATOM     16  C   UNL     1       6.415  -3.149 -35.271  0.00  0.00    +0.260 C 
ATOM     17  C   UNL     1       5.990  -2.010 -34.335  0.00  0.00    +0.110 C 
ATOM     18  C   UNL     1       4.990  -2.566 -33.324  0.00  0.00    -0.030 C 
ATOM     19  C   UNL     1       3.729  -1.998 -31.234  0.00  0.00    +0.340 C 
ATOM     20  O   UNL     1       2.782  -1.428 -30.748  0.00  0.00    -0.390 OA
ENDROOT
BRANCH   1  23
ATOM     21  N   UNL     1       2.135  -4.285 -30.021  0.00  0.00    -0.710 N 
ATOM     22  H   UNL     1       1.977  -4.337 -30.976  0.00  0.00    +0.410 HD
ATOM     23  C   UNL     1       3.272  -3.729 -29.557  0.00  0.00    +0.540 C 
ATOM     24  O   UNL     1       3.471  -3.663 -28.362  0.00  0.00    -0.520 OA
BRANCH  21  26
ATOM     25  C   UNL     1       0.140  -5.687 -29.836  0.00  0.00    +0.090 C 
ATOM     26  C   UNL     1       1.140  -4.808 -29.083  0.00  0.00    +0.280 C 
ATOM     27  C   UNL     1       1.841  -5.642 -28.008  0.00  0.00    +0.090 C 
BRANCH  26  28
ATOM     28  C   UNL     1       0.410  -3.661 -28.432  0.00  0.00    +0.170 A 
ATOM     29  N   UNL     1       0.016  -3.597 -27.185  0.00  0.00    -0.450 NA
ATOM     30  C   UNL     1      -0.587  -2.393 -27.057  0.00  0.00    +0.230 A 
ATOM     31  N   UNL     1      -0.524  -1.803 -28.222  0.00  0.00    -0.370 NA
ATOM     32  O   UNL     1       0.049  -2.515 -29.019  0.00  0.00    +0.080 OA
BRANCH  30  33
ATOM     33  C   UNL     1      -1.204  -1.844 -25.824  0.00  0.00    -0.030 A 
ATOM     34  C   UNL     1      -2.495  -1.320 -25.862  0.00  0.00    +0.070 A 
ATOM     35  C   UNL     1      -3.065  -0.812 -24.712  0.00  0.00    +0.010 A 
ATOM     36  C   UNL     1      -2.357  -0.822 -23.524  0.00  0.00    +0.040 A 
ATOM     37  C   UNL     1      -1.075  -1.341 -23.480  0.00  0.00    +0.010 A 
ATOM     38  C   UNL     1      -0.498  -1.857 -24.623  0.00  0.00    +0.050 A 
ENDBRANCH  30  33
ENDBRANCH  26  28
ENDBRANCH  21  26
ENDBRANCH   1  23
BRANCH  11  39
ATOM     39  O   UNL     1       0.611  -1.695 -34.875  0.00  0.00    -0.480 OA
ATOM     40  H   UNL     1      -0.073  -1.968 -35.501  0.00  0.00    +0.400 HD
ENDBRANCH  11  39
BRANCH   3  41
ATOM     41  O   UNL     1       6.800  -3.196 -31.862  0.00  0.00    -0.540 OA
ATOM     42  H   UNL     1       7.622  -3.646 -32.098  0.00  0.00    +0.400 HD
ENDBRANCH   3  41
BRANCH  14  43
ATOM     43  C   UNL     1       7.466  -5.272 -35.404  0.00  0.00    +0.280 C 
BRANCH  43  44
ATOM     44  C   UNL     1       7.563  -4.727 -36.831  0.00  0.00    -0.080 C 
ATOM     45  C   UNL     1       8.943  -4.724 -37.493  0.00  0.00    +0.050 C 
ATOM     46  C   UNL     1       7.877  -5.723 -37.948  0.00  0.00    +0.070 C 
ENDBRANCH  43  44
ENDBRANCH  14  43
TORSDOF 8
ENDMDL
MODEL 8
REMARK VINA RESULT:      -8.0      3.119      5.424
REMARK  Name = ZINC000100378061
REMARK  10 active torsions:
REMARK  status: ('A' for Active; 'I' for Inactive)
REMARK    1  A    between atoms: C1_1  and  C2_2
REMARK    2  A    between atoms: C2_2  and  C3_3
REMARK    3  A    between atoms: C2_2  and  N4_4
REMARK    4  A    between atoms: C2_2  and  C35_35
REMARK    5  A    between atoms: C5_5  and  C7_7
REMARK    6  A    between atoms: C9_9  and  O10_10
REMARK    7  A    between atoms: C17_17  and  O18_18
REMARK    8  A    between atoms: N29_29  and  C31_31
REMARK    9  A    between atoms: C31_31  and  C32_32
REMARK   10  A    between atoms: C37_37  and  C38_38
REMARK                            x       y       z     vdW  Elec       q    Type
REMARK                         _______ _______ _______ _____ _____    ______ ____
ROOT
ATOM      1  C   UNL     1       2.414  -3.210 -29.594  0.00  0.00    +0.000 C 
ATOM      2  C   UNL     1       3.266  -4.068 -30.531  0.00  0.00    +0.100 C 
ATOM      3  C   UNL     1       4.271  -3.165 -31.245  0.00  0.00    +0.150 C 
ATOM      4  C   UNL     1       5.163  -4.000 -32.167  0.00  0.00    +0.160 C 
ATOM      5  C   UNL     1       4.408  -4.799 -33.214  0.00  0.00    +0.140 C 
ATOM      6  C   UNL     1       3.156  -4.134 -33.684  0.00  0.00    -0.060 A 
ATOM      7  C   UNL     1       2.791  -2.926 -33.138  0.00  0.00    -0.190 A 
ATOM      8  C   UNL     1       1.600  -2.256 -33.379  0.00  0.00    +0.100 A 
ATOM      9  O   UNL     1       1.496  -1.182 -32.568  0.00  0.00    -0.260 OA
ATOM     10  C   UNL     1       2.439  -1.331 -31.463  0.00  0.00    +0.240 C 
ATOM     11  C   UNL     1       0.730  -2.793 -34.334  0.00  0.00    +0.120 A 
ATOM     12  C   UNL     1       1.122  -3.980 -34.951  0.00  0.00    +0.050 A 
ATOM     13  C   UNL     1       2.295  -4.646 -34.640  0.00  0.00    +0.030 A 
ATOM     14  N   UNL     1       6.142  -3.123 -32.821  0.00  0.00    -0.370 N 
ATOM     15  H   UNL     1       6.690  -2.626 -32.135  0.00  0.00    +0.430 HD
ATOM     16  C   UNL     1       5.471  -2.172 -33.671  0.00  0.00    +0.260 C 
ATOM     17  C   UNL     1       4.569  -1.271 -32.818  0.00  0.00    +0.110 C 
ATOM     18  C   UNL     1       3.541  -2.150 -32.110  0.00  0.00    -0.030 C 
ATOM     19  C   UNL     1       1.738  -2.119 -30.369  0.00  0.00    +0.340 C 
ATOM     20  O   UNL     1       0.593  -1.844 -30.106  0.00  0.00    -0.390 OA
ENDROOT
BRANCH   1  23
ATOM     21  N   UNL     1       0.598  -3.568 -27.953  0.00  0.00    -0.710 N 
ATOM     22  H   UNL     1       0.714  -2.647 -27.671  0.00  0.00    +0.410 HD
ATOM     23  C   UNL     1       1.371  -4.074 -28.935  0.00  0.00    +0.540 C 
ATOM     24  O   UNL     1       1.226  -5.226 -29.288  0.00  0.00    -0.520 OA
BRANCH  21  26
ATOM     25  C   UNL     1      -1.174  -5.199 -28.381  0.00  0.00    +0.090 C 
ATOM     26  C   UNL     1      -0.416  -4.409 -27.313  0.00  0.00    +0.280 C 
ATOM     27  C   UNL     1       0.264  -5.381 -26.346  0.00  0.00    +0.090 C 
BRANCH  26  28
ATOM     28  C   UNL     1      -1.383  -3.538 -26.552  0.00  0.00    +0.170 A 
ATOM     29  N   UNL     1      -1.946  -3.820 -25.403  0.00  0.00    -0.450 NA
ATOM     30  C   UNL     1      -2.727  -2.755 -25.111  0.00  0.00    +0.230 A 
ATOM     31  N   UNL     1      -2.593  -1.897 -26.089  0.00  0.00    -0.370 NA
ATOM     32  O   UNL     1      -1.822  -2.330 -26.919  0.00  0.00    +0.080 OA
BRANCH  30  33
ATOM     33  C   UNL     1      -3.576  -2.590 -23.906  0.00  0.00    -0.030 A 
ATOM     34  C   UNL     1      -4.660  -3.440 -23.692  0.00  0.00    +0.070 A 
ATOM     35  C   UNL     1      -5.447  -3.283 -22.569  0.00  0.00    +0.010 A 
ATOM     36  C   UNL     1      -5.161  -2.284 -21.656  0.00  0.00    +0.040 A 
ATOM     37  C   UNL     1      -4.087  -1.437 -21.863  0.00  0.00    +0.010 A 
ATOM     38  C   UNL     1      -3.290  -1.589 -22.979  0.00  0.00    +0.050 A 
ENDBRANCH  30  33
ENDBRANCH  26  28
ENDBRANCH  21  26
ENDBRANCH   1  23
BRANCH  11  39
ATOM     39  O   UNL     1      -0.446  -2.185 -34.646  0.00  0.00    -0.480 OA
ATOM     40  H   UNL     1      -0.346  -1.277 -34.964  0.00  0.00    +0.400 HD
ENDBRANCH  11  39
BRANCH   3  41
ATOM     41  O   UNL     1       5.072  -2.482 -30.278  0.00  0.00    -0.540 OA
ATOM     42  H   UNL     1       5.886  -2.949 -30.041  0.00  0.00    +0.400 HD
ENDBRANCH   3  41
BRANCH  14  43
ATOM     43  C   UNL     1       7.031  -3.959 -33.637  0.00  0.00    +0.280 C 
BRANCH  43  44
ATOM     44  C   UNL     1       7.503  -3.164 -34.856  0.00  0.00    -0.080 C 
ATOM     45  C   UNL     1       9.009  -3.099 -35.117  0.00  0.00    +0.050 C 
ATOM     46  C   UNL     1       8.111  -3.948 -36.020  0.00  0.00    +0.070 C 
ENDBRANCH  43  44
ENDBRANCH  14  43
TORSDOF 8
ENDMDL
MODEL 9
REMARK VINA RESULT:      -8.0     16.636     18.778
REMARK  Name = ZINC000100378061
REMARK  10 active torsions:
REMARK  status: ('A' for Active; 'I' for Inactive)
REMARK    1  A    between atoms: C1_1  and  C2_2
REMARK    2  A    between atoms: C2_2  and  C3_3
REMARK    3  A    between atoms: C2_2  and  N4_4
REMARK    4  A    between atoms: C2_2  and  C35_35
REMARK    5  A    between atoms: C5_5  and  C7_7
REMARK    6  A    between atoms: C9_9  and  O10_10
REMARK    7  A    between atoms: C17_17  and  O18_18
REMARK    8  A    between atoms: N29_29  and  C31_31
REMARK    9  A    between atoms: C31_31  and  C32_32
REMARK   10  A    between atoms: C37_37  and  C38_38
REMARK                            x       y       z     vdW  Elec       q    Type
REMARK                         _______ _______ _______ _____ _____    ______ ____
ROOT
ATOM      1  C   UNL     1      -2.897  13.212 -39.860  0.00  0.00    +0.000 C 
ATOM      2  C   UNL     1      -1.771  12.713 -40.766  0.00  0.00    +0.100 C 
ATOM      3  C   UNL     1      -2.305  11.572 -41.631  0.00  0.00    +0.150 C 
ATOM      4  C   UNL     1      -1.209  11.071 -42.575  0.00  0.00    +0.160 C 
ATOM      5  C   UNL     1       0.051  10.593 -41.875  0.00  0.00    +0.140 C 
ATOM      6  C   UNL     1      -0.206   9.982 -40.537  0.00  0.00    -0.060 A 
ATOM      7  C   UNL     1      -1.494   9.930 -40.057  0.00  0.00    -0.190 A 
ATOM      8  C   UNL     1      -1.869   9.512 -38.788  0.00  0.00    +0.100 A 
ATOM      9  O   UNL     1      -3.187   9.731 -38.594  0.00  0.00    -0.260 OA
ATOM     10  C   UNL     1      -3.658  10.687 -39.592  0.00  0.00    +0.240 C 
ATOM     11  C   UNL     1      -0.873   9.002 -37.948  0.00  0.00    +0.120 A 
ATOM     12  C   UNL     1       0.427   8.979 -38.448  0.00  0.00    +0.050 A 
ATOM     13  C   UNL     1       0.767   9.459 -39.702  0.00  0.00    +0.030 A 
ATOM     14  N   UNL     1      -1.748   9.998 -43.418  0.00  0.00    -0.370 N 
ATOM     15  H   UNL     1      -2.553  10.319 -43.934  0.00  0.00    +0.430 HD
ATOM     16  C   UNL     1      -2.122   8.866 -42.609  0.00  0.00    +0.260 C 
ATOM     17  C   UNL     1      -3.243   9.275 -41.644  0.00  0.00    +0.110 C 
ATOM     18  C   UNL     1      -2.724  10.403 -40.755  0.00  0.00    -0.030 C 
ATOM     19  C   UNL     1      -3.429  12.081 -39.032  0.00  0.00    +0.340 C 
ATOM     20  O   UNL     1      -3.701  12.287 -37.874  0.00  0.00    -0.390 OA
ENDROOT
BRANCH   1  23
ATOM     21  N   UNL     1      -1.491  13.978 -37.974  0.00  0.00    -0.710 N 
ATOM     22  H   UNL     1      -1.203  13.060 -37.857  0.00  0.00    +0.410 HD
ATOM     23  C   UNL     1      -2.367  14.290 -38.951  0.00  0.00    +0.540 C 
ATOM     24  O   UNL     1      -2.728  15.439 -39.098  0.00  0.00    -0.520 OA
BRANCH  21  26
ATOM     25  C   UNL     1       0.118  15.813 -37.814  0.00  0.00    +0.090 C 
ATOM     26  C   UNL     1      -0.977  15.027 -37.090  0.00  0.00    +0.280 C 
ATOM     27  C   UNL     1      -2.115  15.974 -36.706  0.00  0.00    +0.090 C 
BRANCH  26  28
ATOM     28  C   UNL     1      -0.404  14.398 -35.846  0.00  0.00    +0.170 A 
ATOM     29  N   UNL     1      -0.262  14.974 -34.678  0.00  0.00    -0.450 NA
ATOM     30  C   UNL     1       0.288  14.035 -33.875  0.00  0.00    +0.230 A 
ATOM     31  N   UNL     1       0.446  12.955 -34.595  0.00  0.00    -0.370 NA
ATOM     32  O   UNL     1       0.050  13.146 -35.725  0.00  0.00    +0.080 OA
BRANCH  30  33
ATOM     33  C   UNL     1       0.644  14.199 -32.444  0.00  0.00    -0.030 A 
ATOM     34  C   UNL     1      -0.288  13.900 -31.452  0.00  0.00    +0.070 A 
ATOM     35  C   UNL     1       0.049  14.055 -30.122  0.00  0.00    +0.010 A 
ATOM     36  C   UNL     1       1.309  14.505 -29.774  0.00  0.00    +0.040 A 
ATOM     37  C   UNL     1       2.239  14.804 -30.754  0.00  0.00    +0.010 A 
ATOM     38  C   UNL     1       1.914  14.647 -32.087  0.00  0.00    +0.050 A 
ENDBRANCH  30  33
ENDBRANCH  26  28
ENDBRANCH  21  26
ENDBRANCH   1  23
BRANCH  11  39
ATOM     39  O   UNL     1      -1.161   8.549 -36.699  0.00  0.00    -0.480 OA
ATOM     40  H   UNL     1      -2.089   8.305 -36.572  0.00  0.00    +0.400 HD
ENDBRANCH  11  39
BRANCH   3  41
ATOM     41  O   UNL     1      -3.429  12.031 -42.387  0.00  0.00    -0.540 OA
ATOM     42  H   UNL     1      -3.487  12.993 -42.460  0.00  0.00    +0.400 HD
ENDBRANCH   3  41
BRANCH  14  43
ATOM     43  C   UNL     1      -0.700   9.591 -44.364  0.00  0.00    +0.280 C 
BRANCH  43  44
ATOM     44  C   UNL     1      -0.476  10.706 -45.387  0.00  0.00    -0.080 C 
ATOM     45  C   UNL     1       0.953  11.225 -45.565  0.00  0.00    +0.050 C 
ATOM     46  C   UNL     1       0.312  10.358 -46.651  0.00  0.00    +0.070 C 
ENDBRANCH  43  44
ENDBRANCH  14  43
TORSDOF 8
ENDMDL
