REMARK  Name = ZINC000100378061
REMARK  10 active torsions:
REMARK  status: ('A' for Active; 'I' for Inactive)
REMARK    1  A    between atoms: C1_1  and  C2_2
REMARK    2  A    between atoms: C2_2  and  C3_3
REMARK    3  A    between atoms: C2_2  and  N4_4
REMARK    4  A    between atoms: C2_2  and  C35_35
REMARK    5  A    between atoms: C5_5  and  C7_7
REMARK    6  A    between atoms: C9_9  and  O10_10
REMARK    7  A    between atoms: C17_17  and  O18_18
REMARK    8  A    between atoms: N29_29  and  C31_31
REMARK    9  A    between atoms: C31_31  and  C32_32
REMARK   10  A    between atoms: C37_37  and  C38_38
REMARK                            x       y       z     vdW  Elec       q    Type
REMARK                         _______ _______ _______ _____ _____    ______ ____
ROOT
ATOM      1  C   UNL     1      -3.547  -1.060   1.175  0.00  0.00    +0.000 C 
ATOM      2  C   UNL     1      -4.244  -0.572   2.446  0.00  0.00    +0.100 C 
ATOM      3  C   UNL     1      -5.736  -0.883   2.338  0.00  0.00    +0.150 C 
ATOM      4  C   UNL     1      -6.459  -0.436   3.611  0.00  0.00    +0.160 C 
ATOM      5  C   UNL     1      -6.299   1.038   3.938  0.00  0.00    +0.140 C 
ATOM      6  C   UNL     1      -6.176   1.907   2.729  0.00  0.00    -0.060 A 
ATOM      7  C   UNL     1      -6.189   1.329   1.481  0.00  0.00    -0.190 A 
ATOM      8  C   UNL     1      -5.958   1.988   0.282  0.00  0.00    +0.100 A 
ATOM      9  O   UNL     1      -5.891   1.100  -0.733  0.00  0.00    -0.260 OA
ATOM     10  C   UNL     1      -5.669  -0.233  -0.181  0.00  0.00    +0.240 C 
ATOM     11  C   UNL     1      -5.797   3.377   0.320  0.00  0.00    +0.120 A 
ATOM     12  C   UNL     1      -5.856   3.987   1.572  0.00  0.00    +0.050 A 
ATOM     13  C   UNL     1      -6.033   3.284   2.752  0.00  0.00    +0.030 A 
ATOM     14  N   UNL     1      -7.884  -0.770   3.503  0.00  0.00    -0.370 N 
ATOM     15  H   UNL     1      -8.008  -1.758   3.342  0.00  0.00    +0.430 HD
ATOM     16  C   UNL     1      -8.490  -0.033   2.423  0.00  0.00    +0.260 C 
ATOM     17  C   UNL     1      -7.838  -0.442   1.096  0.00  0.00    +0.110 C 
ATOM     18  C   UNL     1      -6.347  -0.121   1.173  0.00  0.00    -0.030 C 
ATOM     19  C   UNL     1      -4.169  -0.420  -0.030  0.00  0.00    +0.340 C 
ATOM     20  O   UNL     1      -3.450  -0.049  -0.926  0.00  0.00    -0.390 OA
ENDROOT
BRANCH   1  23
ATOM     21  N   UNL     1      -1.264  -1.038   0.222  0.00  0.00    -0.710 N 
ATOM     22  H   UNL     1      -1.614  -1.517  -0.545  0.00  0.00    +0.410 HD
ATOM     23  C   UNL     1      -2.086  -0.697   1.235  0.00  0.00    +0.540 C 
ATOM     24  O   UNL     1      -1.649  -0.097   2.195  0.00  0.00    -0.520 OA
BRANCH  21  26
ATOM     25  C   UNL     1       0.301   0.835   0.378  0.00  0.00    +0.090 C 
ATOM     26  C   UNL     1       0.156  -0.685   0.281  0.00  0.00    +0.280 C 
ATOM     27  C   UNL     1       0.793  -1.337   1.510  0.00  0.00    +0.090 C 
BRANCH  26  28
ATOM     28  C   UNL     1       0.848  -1.177  -0.964  0.00  0.00    +0.170 A 
ATOM     29  N   UNL     1       2.119  -1.045  -1.252  0.00  0.00    -0.450 NA
ATOM     30  C   UNL     1       2.281  -1.635  -2.458  0.00  0.00    +0.230 A 
ATOM     31  N   UNL     1       1.111  -2.086  -2.828  0.00  0.00    -0.370 NA
ATOM     32  O   UNL     1       0.281  -1.836  -1.980  0.00  0.00    +0.080 OA
BRANCH  30  33
ATOM     33  C   UNL     1       3.550  -1.749  -3.219  0.00  0.00    -0.030 A 
ATOM     34  C   UNL     1       4.729  -1.223  -2.695  0.00  0.00    +0.070 A 
ATOM     35  C   UNL     1       5.907  -1.332  -3.407  0.00  0.00    +0.010 A 
ATOM     36  C   UNL     1       5.918  -1.962  -4.638  0.00  0.00    +0.040 A 
ATOM     37  C   UNL     1       4.750  -2.486  -5.163  0.00  0.00    +0.010 A 
ATOM     38  C   UNL     1       3.568  -2.388  -4.457  0.00  0.00    +0.050 A 
ENDBRANCH  30  33
ENDBRANCH  26  28
ENDBRANCH  21  26
ENDBRANCH   1  23
BRANCH  11  39
ATOM     39  O   UNL     1      -5.591   4.100  -0.813  0.00  0.00    -0.480 OA
ATOM     40  H   UNL     1      -6.404   4.413  -1.233  0.00  0.00    +0.400 HD
ENDBRANCH  11  39
BRANCH   3  41
ATOM     41  O   UNL     1      -5.919  -2.287   2.140  0.00  0.00    -0.540 OA
ATOM     42  H   UNL     1      -5.566  -2.834   2.855  0.00  0.00    +0.400 HD
ENDBRANCH   3  41
BRANCH  14  43
ATOM     43  C   UNL     1      -8.536  -0.401   4.766  0.00  0.00    +0.280 C 
BRANCH  43  44
ATOM     44  C   UNL     1      -9.982  -0.900   4.759  0.00  0.00    -0.080 C 
ATOM     45  C   UNL     1     -10.372  -1.952   5.800  0.00  0.00    +0.050 C 
ATOM     46  C   UNL     1     -10.870  -0.512   5.942  0.00  0.00    +0.070 C 
ENDBRANCH  43  44
ENDBRANCH  14  43
TORSDOF 8
