@<TRIPOS>MOLECULE
ZINC000100378061
77    84    1     0     0
SMALL
USER_CHARGES
@<TRIPOS>ATOM
1      C1      0.3007    0.8347    0.3777 C.3      1 ZINC000100378061   -0.1600
2      C2      0.1563   -0.6853    0.2811 C.3      1 ZINC000100378061    0.2800
3      C3      0.7934   -1.3373    1.5099 C.3      1 ZINC000100378061   -0.1600
4      N4     -1.2644   -1.0381    0.2224 N.am     1 ZINC000100378061   -0.7100
5      C5     -2.0859   -0.6967    1.2348 C.2      1 ZINC000100378061    0.5400
6      O6     -1.6490   -0.0974    2.1945 O.2      1 ZINC000100378061   -0.5200
7      C7     -3.5473   -1.0596    1.1745 C.3      1 ZINC000100378061   -0.1500
8      C8     -4.2442   -0.5721    2.4463 C.3      1 ZINC000100378061   -0.1200
9      C9     -5.7359   -0.8835    2.3377 C.3      1 ZINC000100378061    0.1500
10     O10    -5.9192   -2.2869    2.1403 O.3      1 ZINC000100378061   -0.5400
11     C11    -6.4589   -0.4365    3.6113 C.3      1 ZINC000100378061    0.0100
12     H12    -6.0481   -1.0078    4.4438 H        1 ZINC000100378061    0.1500
13     C13    -6.2986    1.0385    3.9380 C.3      1 ZINC000100378061   -0.1000
14     C14    -6.1761    1.9075    2.7288 C.ar     1 ZINC000100378061   -0.0600
15     C15    -6.1888    1.3286    1.4809 C.ar     1 ZINC000100378061   -0.1900
16     C16    -5.9584    1.9879    0.2823 C.ar     1 ZINC000100378061    0.1000
17     C17    -5.7968    3.3772    0.3201 C.ar     1 ZINC000100378061    0.1200
18     O18    -5.5914    4.1000   -0.8134 O.3      1 ZINC000100378061   -0.4800
19     C19    -5.8562    3.9869    1.5718 C.ar     1 ZINC000100378061   -0.1000
20     C20    -6.0329    3.2838    2.7520 C.ar     1 ZINC000100378061   -0.1100
21     O21    -5.8907    1.1001   -0.7333 O.3      1 ZINC000100378061   -0.2600
22     C22    -5.6690   -0.2328   -0.1812 C.3      1 ZINC000100378061    0.0700
23     H23    -6.1189   -1.0043   -0.8061 H        1 ZINC000100378061    0.1700
24     C24    -4.1692   -0.4198   -0.0301 C.2      1 ZINC000100378061    0.3400
25     O25    -3.4496   -0.0487   -0.9260 O.2      1 ZINC000100378061   -0.3900
26     C26    -6.3474   -0.1210    1.1735 C.3      1 ZINC000100378061   -0.0300
27     C27    -7.8383   -0.4419    1.0964 C.3      1 ZINC000100378061   -0.1200
28     C28    -8.4897   -0.0333    2.4233 C.3      1 ZINC000100378061   -0.0200
29     N29    -7.8837   -0.7701    3.5034 N.4      1 ZINC000100378061   -0.3700
30     H30    -8.0084   -1.7583    3.3422 H        1 ZINC000100378061    0.4300
31     C31    -8.5364   -0.4005    4.7665 C.3      1 ZINC000100378061    0.0100
32     C32    -9.9824   -0.9004    4.7587 C.3      1 ZINC000100378061   -0.2100
33     C33   -10.3721   -1.9515    5.8000 C.3      1 ZINC000100378061   -0.1700
34     C34   -10.8705   -0.5120    5.9425 C.3      1 ZINC000100378061   -0.1500
35     C35     0.8479   -1.1775   -0.9641 C.2      1 ZINC000100378061    0.1700
36     N36     2.1188   -1.0454   -1.2519 N.2      1 ZINC000100378061   -0.4500
37     C37     2.2813   -1.6353   -2.4578 C.2      1 ZINC000100378061    0.2300
38     C38     3.5504   -1.7492   -3.2190 C.ar     1 ZINC000100378061   -0.0300
39     C39     4.7294   -1.2230   -2.6953 C.ar     1 ZINC000100378061   -0.0700
40     C40     5.9068   -1.3322   -3.4072 C.ar     1 ZINC000100378061   -0.1200
41     C41     5.9176   -1.9623   -4.6385 C.ar     1 ZINC000100378061   -0.0900
42     C42     4.7499   -2.4861   -5.1633 C.ar     1 ZINC000100378061   -0.1200
43     C43     3.5681   -2.3879   -4.4571 C.ar     1 ZINC000100378061   -0.0800
44     N44     1.1111   -2.0864   -2.8277 N.2      1 ZINC000100378061   -0.3700
45     O45     0.2808   -1.8361   -1.9797 O.3      1 ZINC000100378061    0.0800
46     H46     1.3578    1.0972    0.4213 H        1 ZINC000100378061    0.0900
47     H47    -0.1531    1.2992   -0.4977 H        1 ZINC000100378061    0.0600
48     H48    -0.1995    1.1907    1.2783 H        1 ZINC000100378061    0.1000
49     H49     0.2931   -0.9813    2.4105 H        1 ZINC000100378061    0.1000
50     H50     0.6904   -2.4203    1.4410 H        1 ZINC000100378061    0.0600
51     H51     1.8504   -1.0748    1.5535 H        1 ZINC000100378061    0.0900
52     H52    -1.6138   -1.5174   -0.5451 H        1 ZINC000100378061    0.4100
53     H53    -3.6482   -2.1425    1.1014 H        1 ZINC000100378061    0.1500
54     H54    -3.8257   -1.0853    3.3121 H        1 ZINC000100378061    0.1100
55     H55    -4.1019    0.5034    2.5518 H        1 ZINC000100378061    0.1100
56     H56    -5.5658   -2.8340    2.8551 H        1 ZINC000100378061    0.4000
57     H57    -7.1638    1.3640    4.5156 H        1 ZINC000100378061    0.1100
58     H58    -5.4059    1.1652    4.5506 H        1 ZINC000100378061    0.1300
59     H59    -6.4044    4.4130   -1.2330 H        1 ZINC000100378061    0.4000
60     H60    -5.7597    5.0613    1.6242 H        1 ZINC000100378061    0.1500
61     H61    -6.0589    3.8116    3.6939 H        1 ZINC000100378061    0.1400
62     H62    -8.2921    0.1160    0.2774 H        1 ZINC000100378061    0.1200
63     H63    -7.9758   -1.5109    0.9338 H        1 ZINC000100378061    0.1100
64     H64    -8.3782    1.0417    2.5651 H        1 ZINC000100378061    0.1400
65     H65    -9.5498   -0.2855    2.3987 H        1 ZINC000100378061    0.1400
66     H66    -7.9994   -0.8545    5.5994 H        1 ZINC000100378061    0.1300
67     H67    -8.5274    0.6839    4.8764 H        1 ZINC000100378061    0.1400
68     H68   -10.4520   -0.9655    3.7772 H        1 ZINC000100378061    0.1300
69     H69   -11.0982   -2.7085    5.5036 H        1 ZINC000100378061    0.1100
70     H70    -9.5983   -2.2869    6.4905 H        1 ZINC000100378061    0.1100
71     H71   -10.4246    0.0997    6.7268 H        1 ZINC000100378061    0.1100
72     H72   -11.9245   -0.3220    5.7399 H        1 ZINC000100378061    0.1100
73     H73     4.7220   -0.7302   -1.7343 H        1 ZINC000100378061    0.1400
74     H74     6.8213   -0.9247   -3.0023 H        1 ZINC000100378061    0.1300
75     H75     6.8410   -2.0452   -5.1924 H        1 ZINC000100378061    0.1300
76     H76     4.7637   -2.9764   -6.1255 H        1 ZINC000100378061    0.1300
77     H77     2.6569   -2.7976   -4.8675 H        1 ZINC000100378061    0.1300
@<TRIPOS>BOND
1     1     2     1
2     1     46    1
3     1     47    1
4     1     48    1
5     2     3     1
6     2     4     1
7     2     35    1
8     3     49    1
9     3     50    1
10    3     51    1
11    4     5     am
12    4     52    1
13    5     6     2
14    5     7     1
15    7     24    1
16    7     8     1
17    7     53    1
18    8     9     1
19    8     54    1
20    8     55    1
21    9     26    1
22    9     10    1
23    9     11    1
24    10    56    1
25    11    12    1
26    11    29    1
27    11    13    1
28    13    14    1
29    13    57    1
30    13    58    1
31    14    20    ar
32    14    15    ar
33    15    26    1
34    15    16    ar
35    16    17    ar
36    16    21    1
37    17    18    1
38    17    19    ar
39    18    59    1
40    19    20    ar
41    19    60    1
42    20    61    1
43    21    22    1
44    22    23    1
45    22    24    1
46    22    26    1
47    24    25    2
48    26    27    1
49    27    28    1
50    27    62    1
51    27    63    1
52    28    29    1
53    28    64    1
54    28    65    1
55    29    30    1
56    29    31    1
57    31    32    1
58    31    66    1
59    31    67    1
60    32    34    1
61    32    33    1
62    32    68    1
63    33    34    1
64    33    69    1
65    33    70    1
66    34    71    1
67    34    72    1
68    35    45    1
69    35    36    2
70    36    37    1
71    37    38    1
72    37    44    2
73    38    43    ar
74    38    39    ar
75    39    40    ar
76    39    73    1
77    40    41    ar
78    40    74    1
79    41    42    ar
80    41    75    1
81    42    43    ar
82    42    76    1
83    43    77    1
84    44    45    1
@<TRIPOS>SUBSTRUCTURE
1   ZINC000100378061 1     RESIDUE    1   A     ZIN   1
