REMARK  Name = ZINC000003833846
REMARK  16 active torsions:
REMARK  status: ('A' for Active; 'I' for Inactive)
REMARK    1  A    between atoms: C1_1  and  C2_2
REMARK    2  A    between atoms: C3_3  and  O4_4
REMARK    3  A    between atoms: C8_8  and  C9_9
REMARK    4  A    between atoms: N11_11  and  C12_12
REMARK    5  A    between atoms: C12_12  and  C14_14
REMARK    6  A    between atoms: C12_12  and  C22_22
REMARK    7  A    between atoms: C14_14  and  S15_15
REMARK    8  A    between atoms: S15_15  and  C16_16
REMARK    9  A    between atoms: C22_22  and  O24_24
REMARK   10  A    between atoms: C22_22  and  C25_25
REMARK   11  A    between atoms: C25_25  and  N26_26
REMARK   12  A    between atoms: C38_38  and  C40_40
REMARK   13  A    between atoms: N42_42  and  C43_43
REMARK   14  A    between atoms: C43_43  and  C44_44
REMARK   15  A    between atoms: C43_43  and  C45_45
REMARK   16  A    between atoms: C43_43  and  C46_46
REMARK                            x       y       z     vdW  Elec       q    Type
REMARK                         _______ _______ _______ _____ _____    ______ ____
ROOT
ATOM      1  C   UNL     1       0.070   0.157   6.751  0.00  0.00    +0.230 C 
ENDROOT
BRANCH   1   2
ATOM      2  O   UNL     1      -0.692  -0.974   7.177  0.00  0.00    -0.540 OA
ATOM      3  H   UNL     1      -1.281  -0.794   7.922  0.00  0.00    +0.390 HD
ENDBRANCH   1   2
BRANCH   1   4
ATOM      4  C   UNL     1      -0.879   1.277   6.317  0.00  0.00    +0.260 C 
BRANCH   4   6
ATOM      5  C   UNL     1      -2.127   1.768   4.284  0.00  0.00    +0.570 C 
ATOM      6  N   UNL     1      -1.630   0.849   5.135  0.00  0.00    -0.720 N 
ATOM      7  H   UNL     1      -1.770  -0.096   4.965  0.00  0.00    +0.410 HD
ATOM      8  O   UNL     1      -1.952   2.952   4.497  0.00  0.00    -0.490 OA
BRANCH   5  15
ATOM      9  C   UNL     1      -3.162   3.753   2.451  0.00  0.00    +0.110 C 
ATOM     10  C   UNL     1      -3.392   2.285   2.201  0.00  0.00    -0.040 A 
ATOM     11  C   UNL     1      -4.102   1.874   1.086  0.00  0.00    +0.100 A 
ATOM     12  C   UNL     1      -4.313   0.520   0.857  0.00  0.00    +0.030 A 
ATOM     13  C   UNL     1      -3.816  -0.421   1.740  0.00  0.00    +0.020 A 
ATOM     14  C   UNL     1      -3.108  -0.021   2.855  0.00  0.00    +0.040 A 
ATOM     15  C   UNL     1      -2.886   1.336   3.090  0.00  0.00    -0.130 A 
BRANCH  11  16
ATOM     16  O   UNL     1      -4.592   2.794   0.215  0.00  0.00    -0.490 OA
ATOM     17  H   UNL     1      -3.983   3.022  -0.501  0.00  0.00    +0.390 HD
ENDBRANCH  11  16
ENDBRANCH   5  15
ENDBRANCH   4   6
BRANCH   4  18
ATOM     18  C   UNL     1      -1.852   1.590   7.455  0.00  0.00    +0.020 C 
BRANCH  18  19
ATOM     19  S   UNL     1      -2.977   2.917   6.941  0.00  0.00    -0.020 S 
BRANCH  19  20
ATOM     20  C   UNL     1      -4.005   3.135   8.355  0.00  0.00    -0.120 A 
ATOM     21  C   UNL     1      -3.805   2.357   9.489  0.00  0.00    -0.030 A 
ATOM     22  C   UNL     1      -4.613   2.531  10.595  0.00  0.00    +0.020 A 
ATOM     23  C   UNL     1      -5.620   3.478  10.575  0.00  0.00    +0.010 A 
ATOM     24  C   UNL     1      -5.823   4.254   9.449  0.00  0.00    +0.030 A 
ATOM     25  C   UNL     1      -5.015   4.090   8.341  0.00  0.00    +0.030 A 
ENDBRANCH  19  20
ENDBRANCH  18  19
ENDBRANCH   4  18
ENDBRANCH   1   4
BRANCH   1  26
ATOM     26  C   UNL     1       0.943   0.648   7.908  0.00  0.00    +0.230 C 
BRANCH  26  27
ATOM     27  N   UNL     1       2.003  -0.334   8.172  0.00  0.00    -0.360 N 
ATOM     28  C   UNL     1       1.409  -1.554   8.732  0.00  0.00    +0.270 C 
ATOM     29  C   UNL     1       2.502  -2.609   8.929  0.00  0.00    +0.020 C 
ATOM     30  C   UNL     1       3.150  -2.914   7.576  0.00  0.00    +0.000 C 
ATOM     31  C   UNL     1       4.268  -3.941   7.763  0.00  0.00    +0.020 C 
ATOM     32  C   UNL     1       5.326  -3.373   8.711  0.00  0.00    +0.010 C 
ATOM     33  C   UNL     1       4.683  -3.074  10.067  0.00  0.00    +0.030 C 
ATOM     34  C   UNL     1       3.550  -2.062   9.901  0.00  0.00    +0.000 C 
ATOM     35  C   UNL     1       4.102  -0.754   9.330  0.00  0.00    +0.070 C 
ATOM     36  C   UNL     1       2.967   0.234   9.122  0.00  0.00    +0.170 C 
ATOM     37  H   UNL     1       2.475  -0.557   7.309  0.00  0.00    +0.430 HD
BRANCH  36  38
ATOM     38  C   UNL     1       3.516   1.516   8.553  0.00  0.00    +0.500 C 
ATOM     39  N   UNL     1       4.051   2.443   9.372  0.00  0.00    -0.690 N 
ATOM     40  H   UNL     1       4.083   2.284  10.328  0.00  0.00    +0.410 HD
ATOM     41  O   UNL     1       3.477   1.714   7.357  0.00  0.00    -0.520 OA
BRANCH  39  42
ATOM     42  C   UNL     1       4.585   3.689   8.818  0.00  0.00    +0.170 C 
ATOM     43  C   UNL     1       5.714   3.369   7.836  0.00  0.00    +0.040 C 
ATOM     44  C   UNL     1       5.129   4.560   9.953  0.00  0.00    +0.060 C 
ATOM     45  C   UNL     1       3.471   4.441   8.088  0.00  0.00    +0.050 C 
ENDBRANCH  39  42
ENDBRANCH  36  38
ENDBRANCH  26  27
ENDBRANCH   1  26
TORSDOF 12
