@<TRIPOS>MOLECULE
ZINC000003833846
86    89    1     0     0
SMALL
USER_CHARGES
@<TRIPOS>ATOM
1      C1     -3.1616    3.7534    2.4510 C.3      1 ZINC000003833846   -0.1300
2      C2     -3.3922    2.2853    2.2013 C.ar     1 ZINC000003833846   -0.0400
3      C3     -4.1018    1.8736    1.0860 C.ar     1 ZINC000003833846    0.1000
4      O4     -4.5918    2.7944    0.2147 O.3      1 ZINC000003833846   -0.4900
5      C5     -4.3126    0.5204    0.8570 C.ar     1 ZINC000003833846   -0.1100
6      C6     -3.8164   -0.4207    1.7398 C.ar     1 ZINC000003833846   -0.1200
7      C7     -3.1082   -0.0213    2.8548 C.ar     1 ZINC000003833846   -0.0900
8      C8     -2.8863    1.3363    3.0904 C.ar     1 ZINC000003833846   -0.1300
9      C9     -2.1275    1.7680    4.2837 C.2      1 ZINC000003833846    0.5700
10     O10    -1.9521    2.9518    4.4970 O.2      1 ZINC000003833846   -0.4900
11     N11    -1.6304    0.8490    5.1350 N.am     1 ZINC000003833846   -0.7200
12     C12    -0.8786    1.2767    6.3174 C.3      1 ZINC000003833846    0.1400
13     H13    -0.3011    2.1695    6.0775 H        1 ZINC000003833846    0.1200
14     C14    -1.8524    1.5897    7.4553 C.3      1 ZINC000003833846   -0.1600
15     S15    -2.9768    2.9169    6.9410 S.3      1 ZINC000003833846   -0.0200
16     C16    -4.0052    3.1353    8.3549 C.ar     1 ZINC000003833846   -0.1200
17     C17    -3.8051    2.3569    9.4887 C.ar     1 ZINC000003833846   -0.1400
18     C18    -4.6130    2.5308   10.5949 C.ar     1 ZINC000003833846   -0.1000
19     C19    -5.6204    3.4781   10.5755 C.ar     1 ZINC000003833846   -0.1200
20     C20    -5.8228    4.2543    9.4489 C.ar     1 ZINC000003833846   -0.1000
21     C21    -5.0148    4.0903    8.3412 C.ar     1 ZINC000003833846   -0.1000
22     C22     0.0698    0.1572    6.7512 C.3      1 ZINC000003833846    0.0900
23     H23     0.7046   -0.1268    5.9119 H        1 ZINC000003833846    0.1400
24     O24    -0.6920   -0.9744    7.1766 O.3      1 ZINC000003833846   -0.5400
25     C25     0.9430    0.6481    7.9077 C.3      1 ZINC000003833846   -0.0600
26     N26     2.0030   -0.3340    8.1721 N.4      1 ZINC000003833846   -0.3600
27     H27     2.4753   -0.5575    7.3089 H        1 ZINC000003833846    0.4300
28     C28     1.4086   -1.5537    8.7323 C.3      1 ZINC000003833846   -0.0300
29     C29     2.5015   -2.6092    8.9286 C.3      1 ZINC000003833846   -0.1000
30     H30     2.0625   -3.5193    9.3376 H        1 ZINC000003833846    0.1200
31     C31     3.1503   -2.9140    7.5763 C.3      1 ZINC000003833846   -0.1300
32     C32     4.2683   -3.9409    7.7628 C.3      1 ZINC000003833846   -0.1200
33     C33     5.3263   -3.3732    8.7114 C.3      1 ZINC000003833846   -0.1300
34     C34     4.6830   -3.0742   10.0668 C.3      1 ZINC000003833846   -0.1200
35     C35     3.5500   -2.0622    9.9007 C.3      1 ZINC000003833846   -0.0900
36     H36     3.0918   -1.8694   10.8707 H        1 ZINC000003833846    0.0900
37     C37     4.1016   -0.7536    9.3301 C.3      1 ZINC000003833846   -0.1400
38     C38     2.9670    0.2335    9.1221 C.3      1 ZINC000003833846    0.0100
39     H39     2.4848    0.4385   10.0779 H        1 ZINC000003833846    0.1600
40     C40     3.5163    1.5160    8.5525 C.2      1 ZINC000003833846    0.5000
41     O41     3.4769    1.7143    7.3566 O.2      1 ZINC000003833846   -0.5200
42     N42     4.0514    2.4426    9.3719 N.am     1 ZINC000003833846   -0.6900
43     C43     4.5854    3.6894    8.8182 C.3      1 ZINC000003833846    0.1700
44     C44     3.4712    4.4414    8.0875 C.3      1 ZINC000003833846   -0.1700
45     C45     5.1290    4.5598    9.9530 C.3      1 ZINC000003833846   -0.1600
46     C46     5.7138    3.3690    7.8358 C.3      1 ZINC000003833846   -0.1700
47     H47    -2.1823    4.0380    2.0660 H        1 ZINC000003833846    0.0700
48     H48    -3.9334    4.3336    1.9452 H        1 ZINC000003833846    0.0700
49     H49    -3.2022    3.9506    3.5222 H        1 ZINC000003833846    0.1000
50     H50    -3.9826    3.0220   -0.5009 H        1 ZINC000003833846    0.3900
51     H51    -4.8664    0.2020   -0.0138 H        1 ZINC000003833846    0.1400
52     H52    -3.9840   -1.4718    1.5564 H        1 ZINC000003833846    0.1400
53     H53    -2.7219   -0.7591    3.5425 H        1 ZINC000003833846    0.1300
54     H54    -1.7704   -0.0956    4.9648 H        1 ZINC000003833846    0.4100
55     H55    -2.4298    0.6969    7.6952 H        1 ZINC000003833846    0.0900
56     H56    -1.2930    1.9079    8.3350 H        1 ZINC000003833846    0.0900
57     H57    -3.0189    1.6166    9.5044 H        1 ZINC000003833846    0.1100
58     H58    -4.4583    1.9260   11.4762 H        1 ZINC000003833846    0.1200
59     H59    -6.2508    3.6120   11.4422 H        1 ZINC000003833846    0.1300
60     H60    -6.6107    4.9929    9.4371 H        1 ZINC000003833846    0.1300
61     H61    -5.1732    4.6969    7.4618 H        1 ZINC000003833846    0.1300
62     H62    -1.2809   -0.7944    7.9222 H        1 ZINC000003833846    0.3900
63     H63     1.3923    1.6053    7.6429 H        1 ZINC000003833846    0.1500
64     H64     0.3293    0.7694    8.8003 H        1 ZINC000003833846    0.1400
65     H65     0.9473   -1.3250    9.6931 H        1 ZINC000003833846    0.1300
66     H66     0.6519   -1.9368    8.0477 H        1 ZINC000003833846    0.1700
67     H67     2.3992   -3.3148    6.8956 H        1 ZINC000003833846    0.0800
68     H68     3.5658   -1.9971    7.1583 H        1 ZINC000003833846    0.0500
69     H69     3.8544   -4.8563    8.1857 H        1 ZINC000003833846    0.0700
70     H70     4.7253   -4.1602    6.7978 H        1 ZINC000003833846    0.0700
71     H71     6.1267   -4.1016    8.8415 H        1 ZINC000003833846    0.0800
72     H72     5.7351   -2.4539    8.2921 H        1 ZINC000003833846    0.0600
73     H73     4.2767   -3.9946   10.4864 H        1 ZINC000003833846    0.0800
74     H74     5.4350   -2.6689   10.7437 H        1 ZINC000003833846    0.0700
75     H75     4.8205   -0.3259   10.0289 H        1 ZINC000003833846    0.1100
76     H76     4.5916   -0.9498    8.3764 H        1 ZINC000003833846    0.1000
77     H77     4.0829    2.2840   10.3284 H        1 ZINC000003833846    0.4100
78     H78     2.6674    4.6696    8.7874 H        1 ZINC000003833846    0.0600
79     H79     3.8685    5.3690    7.6755 H        1 ZINC000003833846    0.0800
80     H80     3.0839    3.8213    7.2791 H        1 ZINC000003833846    0.0800
81     H81     5.9228    4.0241   10.4735 H        1 ZINC000003833846    0.0700
82     H82     5.5264    5.4875    9.5410 H        1 ZINC000003833846    0.0800
83     H83     4.3252    4.7881   10.6529 H        1 ZINC000003833846    0.0700
84     H84     5.3265    2.7489    7.0273 H        1 ZINC000003833846    0.0800
85     H85     6.1111    4.2967    7.4238 H        1 ZINC000003833846    0.0700
86     H86     6.5076    2.8333    8.3563 H        1 ZINC000003833846    0.0600
@<TRIPOS>BOND
1     1     2     1
2     1     47    1
3     1     48    1
4     1     49    1
5     2     8     ar
6     2     3     ar
7     3     4     1
8     3     5     ar
9     4     50    1
10    5     6     ar
11    5     51    1
12    6     7     ar
13    6     52    1
14    7     8     ar
15    7     53    1
16    8     9     1
17    9     10    2
18    9     11    am
19    11    12    1
20    11    54    1
21    12    13    1
22    12    14    1
23    12    22    1
24    14    15    1
25    14    55    1
26    14    56    1
27    15    16    1
28    16    21    ar
29    16    17    ar
30    17    18    ar
31    17    57    1
32    18    19    ar
33    18    58    1
34    19    20    ar
35    19    59    1
36    20    21    ar
37    20    60    1
38    21    61    1
39    22    23    1
40    22    24    1
41    22    25    1
42    24    62    1
43    25    26    1
44    25    63    1
45    25    64    1
46    26    27    1
47    26    38    1
48    26    28    1
49    28    29    1
50    28    65    1
51    28    66    1
52    29    30    1
53    29    35    1
54    29    31    1
55    31    32    1
56    31    67    1
57    31    68    1
58    32    33    1
59    32    69    1
60    32    70    1
61    33    34    1
62    33    71    1
63    33    72    1
64    34    35    1
65    34    73    1
66    34    74    1
67    35    36    1
68    35    37    1
69    37    38    1
70    37    75    1
71    37    76    1
72    38    39    1
73    38    40    1
74    40    41    2
75    40    42    am
76    42    43    1
77    42    77    1
78    43    44    1
79    43    45    1
80    43    46    1
81    44    78    1
82    44    79    1
83    44    80    1
84    45    81    1
85    45    82    1
86    45    83    1
87    46    84    1
88    46    85    1
89    46    86    1
@<TRIPOS>SUBSTRUCTURE
1   ZINC000003833846 1     RESIDUE    1   A     ZIN   1
