REMARK  Name = ZINC000004217095
REMARK  7 active torsions:
REMARK  status: ('A' for Active; 'I' for Inactive)
REMARK    1  A    between atoms: C1_1  and  N2_2
REMARK    2  A    between atoms: C11_11  and  O12_12
REMARK    3  A    between atoms: O12_12  and  C13_13
REMARK    4  A    between atoms: C13_13  and  C15_15
REMARK    5  A    between atoms: C25_25  and  O27_27
REMARK    6  A    between atoms: O27_27  and  C28_28
REMARK    7  A    between atoms: C28_28  and  C30_30
REMARK                            x       y       z     vdW  Elec       q    Type
REMARK                         _______ _______ _______ _____ _____    ______ ____
ROOT
ATOM      1  C   UNL     1       0.265   1.096  -0.349  0.00  0.00    +0.320 C 
ATOM      2  N   UNL     1       0.194  -0.371  -0.315  0.00  0.00    -0.380 N 
ATOM      3  C   UNL     1      -1.211  -0.780  -0.271  0.00  0.00    +0.260 C 
ATOM      4  C   UNL     1      -1.901  -0.250   0.995  0.00  0.00    +0.100 C 
ATOM      5  C   UNL     1      -1.115  -0.792   2.192  0.00  0.00    -0.050 C 
ATOM      6  C   UNL     1      -1.074  -2.296   2.090  0.00  0.00    -0.190 A 
ATOM      7  C   UNL     1      -0.120  -3.058   1.462  0.00  0.00    -0.040 A 
ATOM      8  C   UNL     1      -0.322  -4.427   1.505  0.00  0.00    +0.020 A 
ATOM      9  C   UNL     1      -1.408  -4.949   2.188  0.00  0.00    +0.070 A 
ATOM     10  C   UNL     1      -2.335  -4.163   2.871  0.00  0.00    +0.080 A 
ATOM     11  C   UNL     1       1.044  -2.376   0.820  0.00  0.00    +0.140 C 
ATOM     12  C   UNL     1      -2.145  -2.779   2.832  0.00  0.00    +0.160 A 
ATOM     13  O   UNL     1      -2.796  -1.751   3.424  0.00  0.00    -0.280 OA
ATOM     14  C   UNL     1       0.305  -0.283   2.107  0.00  0.00    +0.050 C 
ATOM     15  C   UNL     1       1.081  -0.511   3.388  0.00  0.00    +0.020 C 
ATOM     16  C   UNL     1       0.493  -0.796   4.507  0.00  0.00    +0.000 C 
ATOM     17  C   UNL     1      -0.961  -1.020   4.708  0.00  0.00    +0.210 C 
ATOM     18  C   UNL     1      -1.845  -0.627   3.519  0.00  0.00    +0.260 C 
ATOM     19  C   UNL     1       0.943  -0.860   0.853  0.00  0.00    +0.200 C 
ATOM     20  H   UNL     1       0.617  -0.739  -1.154  0.00  0.00    +0.430 HD
ENDROOT
BRANCH  10  21
ATOM     21  O   UNL     1      -3.377  -4.719   3.546  0.00  0.00    -0.270 OA
BRANCH  21  22
ATOM     22  C   UNL     1      -4.534  -4.864   2.872  0.00  0.00    +0.520 C 
ATOM     23  O   UNL     1      -4.587  -4.590   1.690  0.00  0.00    -0.490 OA
BRANCH  22  24
ATOM     24  C   UNL     1      -5.739  -5.356   3.571  0.00  0.00    -0.190 A 
ATOM     25  C   UNL     1      -6.947  -5.516   2.881  0.00  0.00    +0.140 A 
ATOM     26  C   UNL     1      -8.046  -5.980   3.582  0.00  0.00    -0.030 A 
ATOM     27  C   UNL     1      -7.919  -6.267   4.929  0.00  0.00    +0.310 A 
ATOM     28  N   UNL     1      -6.768  -6.106   5.554  0.00  0.00    -0.490 NA
ATOM     29  C   UNL     1      -5.692  -5.673   4.930  0.00  0.00    +0.330 A 
ENDBRANCH  22  24
ENDBRANCH  21  22
ENDBRANCH  10  21
BRANCH  17  30
ATOM     30  O   UNL     1      -1.169  -2.429   4.988  0.00  0.00    -0.330 OA
BRANCH  30  31
ATOM     31  C   UNL     1      -1.536  -2.756   6.243  0.00  0.00    +0.520 C 
ATOM     32  O   UNL     1      -1.785  -1.883   7.049  0.00  0.00    -0.490 OA
BRANCH  31  33
ATOM     33  C   UNL     1      -1.636  -4.176   6.637  0.00  0.00    -0.180 A 
ATOM     34  C   UNL     1      -2.136  -4.532   7.896  0.00  0.00    +0.140 A 
ATOM     35  C   UNL     1      -2.208  -5.876   8.216  0.00  0.00    -0.030 A 
ATOM     36  C   UNL     1      -1.789  -6.816   7.292  0.00  0.00    +0.310 A 
ATOM     37  N   UNL     1      -1.322  -6.452   6.113  0.00  0.00    -0.490 NA
ATOM     38  C   UNL     1      -1.239  -5.186   5.759  0.00  0.00    +0.330 A 
ENDBRANCH  31  33
ENDBRANCH  30  31
ENDBRANCH  17  30
TORSDOF 6
