@<TRIPOS>MOLECULE
ZINC000004217095
63    69    1     0     0
SMALL
USER_CHARGES
@<TRIPOS>ATOM
1      C1      0.2649    1.0959   -0.3490 C.3      1 ZINC000004217095   -0.0600
2      N2      0.1942   -0.3711   -0.3154 N.4      1 ZINC000004217095   -0.3800
3      H3      0.6171   -0.7393   -1.1542 H        1 ZINC000004217095    0.4300
4      C4     -1.2108   -0.7796   -0.2711 C.3      1 ZINC000004217095   -0.0100
5      C5     -1.9014   -0.2501    0.9953 C.3      1 ZINC000004217095   -0.1200
6      C6     -1.1145   -0.7916    2.1921 C.3      1 ZINC000004217095   -0.0500
7      C7     -1.0739   -2.2958    2.0901 C.ar     1 ZINC000004217095   -0.1900
8      C8     -0.1198   -3.0582    1.4619 C.ar     1 ZINC000004217095   -0.0400
9      C9     -0.3215   -4.4267    1.5053 C.ar     1 ZINC000004217095   -0.1200
10     C10    -1.4083   -4.9487    2.1877 C.ar     1 ZINC000004217095   -0.0700
11     C11    -2.3354   -4.1633    2.8714 C.ar     1 ZINC000004217095    0.0800
12     O12    -3.3771   -4.7189    3.5460 O.3      1 ZINC000004217095   -0.2700
13     C13    -4.5344   -4.8640    2.8721 C.2      1 ZINC000004217095    0.5200
14     O14    -4.5872   -4.5904    1.6897 O.2      1 ZINC000004217095   -0.4900
15     C15    -5.7393   -5.3556    3.5709 C.ar     1 ZINC000004217095   -0.1900
16     C16    -6.9471   -5.5163    2.8806 C.ar     1 ZINC000004217095   -0.0100
17     C17    -8.0464   -5.9800    3.5817 C.ar     1 ZINC000004217095   -0.1800
18     C18    -7.9186   -6.2671    4.9287 C.ar     1 ZINC000004217095    0.1400
19     N19    -6.7676   -6.1061    5.5536 N.ar     1 ZINC000004217095   -0.4900
20     C20    -5.6920   -5.6734    4.9296 C.ar     1 ZINC000004217095    0.1700
21     C21    -2.1454   -2.7787    2.8324 C.ar     1 ZINC000004217095    0.1600
22     O22    -2.7962   -1.7508    3.4239 O.3      1 ZINC000004217095   -0.2800
23     C23    -1.8455   -0.6272    3.5194 C.3      1 ZINC000004217095    0.1000
24     H24    -2.3211    0.3466    3.6368 H        1 ZINC000004217095    0.1600
25     C25    -0.9607   -1.0200    4.7081 C.3      1 ZINC000004217095    0.0900
26     H26    -1.2800   -0.4470    5.5787 H        1 ZINC000004217095    0.1200
27     O27    -1.1690   -2.4294    4.9883 O.3      1 ZINC000004217095   -0.3300
28     C28    -1.5362   -2.7559    6.2426 C.2      1 ZINC000004217095    0.5200
29     O29    -1.7854   -1.8826    7.0492 O.2      1 ZINC000004217095   -0.4900
30     C30    -1.6359   -4.1760    6.6370 C.ar     1 ZINC000004217095   -0.1800
31     C31    -2.1356   -4.5320    7.8958 C.ar     1 ZINC000004217095   -0.0100
32     C32    -2.2082   -5.8763    8.2162 C.ar     1 ZINC000004217095   -0.1800
33     C33    -1.7890   -6.8162    7.2922 C.ar     1 ZINC000004217095    0.1400
34     N34    -1.3218   -6.4516    6.1131 N.ar     1 ZINC000004217095   -0.4900
35     C35    -1.2388   -5.1862    5.7590 C.ar     1 ZINC000004217095    0.1700
36     C36     0.4934   -0.7956    4.5071 C.2      1 ZINC000004217095   -0.1300
37     C37     1.0811   -0.5112    3.3884 C.2      1 ZINC000004217095   -0.1200
38     C38     0.3055   -0.2830    2.1068 C.3      1 ZINC000004217095   -0.0600
39     H39     0.2586    0.7944    1.9486 H        1 ZINC000004217095    0.1100
40     C40     0.9434   -0.8600    0.8530 C.3      1 ZINC000004217095    0.0500
41     H41     1.9603   -0.4733    0.7867 H        1 ZINC000004217095    0.1500
42     C42     1.0441   -2.3758    0.8195 C.3      1 ZINC000004217095   -0.0900
43     H43     1.3084    1.4100   -0.3256 H        1 ZINC000004217095    0.1300
44     H44    -0.2042    1.4614   -1.2625 H        1 ZINC000004217095    0.1300
45     H45    -0.2571    1.5047    0.5162 H        1 ZINC000004217095    0.1200
46     H46    -1.7249   -0.3881   -1.1489 H        1 ZINC000004217095    0.1400
47     H47    -1.2672   -1.8681   -0.2806 H        1 ZINC000004217095    0.1300
48     H48    -1.8838    0.8397    1.0007 H        1 ZINC000004217095    0.1000
49     H49    -2.9307   -0.6068    1.0346 H        1 ZINC000004217095    0.1200
50     H50     0.3698   -5.0892    1.0057 H        1 ZINC000004217095    0.1400
51     H51    -1.5447   -6.0200    2.1899 H        1 ZINC000004217095    0.1400
52     H52    -7.0189   -5.2841    1.8283 H        1 ZINC000004217095    0.1500
53     H53    -8.9944   -6.1159    3.0824 H        1 ZINC000004217095    0.1500
54     H54    -8.7752   -6.6288    5.4782 H        1 ZINC000004217095    0.1700
55     H55    -4.7677   -5.5548    5.4754 H        1 ZINC000004217095    0.1600
56     H56    -2.4558   -3.7770    8.5985 H        1 ZINC000004217095    0.1500
57     H57    -2.5879   -6.1882    9.1780 H        1 ZINC000004217095    0.1500
58     H58    -1.8446   -7.8660    7.5398 H        1 ZINC000004217095    0.1700
59     H59    -0.8511   -4.9271    4.7849 H        1 ZINC000004217095    0.1600
60     H60     1.1234   -0.8774    5.3804 H        1 ZINC000004217095    0.1300
61     H61     2.1575   -0.4247    3.3709 H        1 ZINC000004217095    0.1400
62     H62     1.9561   -2.6772    1.3348 H        1 ZINC000004217095    0.1300
63     H63     1.1093   -2.6991   -0.2194 H        1 ZINC000004217095    0.1000
@<TRIPOS>BOND
1     1     2     1
2     1     43    1
3     1     44    1
4     1     45    1
5     2     3     1
6     2     40    1
7     2     4     1
8     4     5     1
9     4     46    1
10    4     47    1
11    5     6     1
12    5     48    1
13    5     49    1
14    6     23    1
15    6     38    1
16    6     7     1
17    7     21    ar
18    7     8     ar
19    8     42    1
20    8     9     ar
21    9     10    ar
22    9     50    1
23    10    11    ar
24    10    51    1
25    11    12    1
26    11    21    ar
27    12    13    1
28    13    14    2
29    13    15    1
30    15    20    ar
31    15    16    ar
32    16    17    ar
33    16    52    1
34    17    18    ar
35    17    53    1
36    18    19    ar
37    18    54    1
38    19    20    ar
39    20    55    1
40    21    22    1
41    22    23    1
42    23    24    1
43    23    25    1
44    25    26    1
45    25    27    1
46    25    36    1
47    27    28    1
48    28    29    2
49    28    30    1
50    30    35    ar
51    30    31    ar
52    31    32    ar
53    31    56    1
54    32    33    ar
55    32    57    1
56    33    34    ar
57    33    58    1
58    34    35    ar
59    35    59    1
60    36    37    2
61    36    60    1
62    37    38    1
63    37    61    1
64    38    39    1
65    38    40    1
66    40    41    1
67    40    42    1
68    42    62    1
69    42    63    1
@<TRIPOS>SUBSTRUCTURE
1   ZINC000004217095 1     RESIDUE    1   A     ZIN   1
