REMARK  Name = ZINC000004213975
REMARK  17 active torsions:
REMARK  status: ('A' for Active; 'I' for Inactive)
REMARK    1  A    between atoms: C2_2  and  O3_3
REMARK    2  A    between atoms: C2_2  and  C42_42
REMARK    3  A    between atoms: O3_3  and  C4_4
REMARK    4  A    between atoms: C4_4  and  C5_5
REMARK    5  A    between atoms: C5_5  and  C6_6
REMARK    6  A    between atoms: C6_6  and  O7_7
REMARK    7  A    between atoms: O7_7  and  C8_8
REMARK    8  A    between atoms: C8_8  and  C10_10
REMARK    9  A    between atoms: C19_19  and  C20_20
REMARK   10  A    between atoms: C19_19  and  C30_30
REMARK   11  A    between atoms: C20_20  and  O21_21
REMARK   12  A    between atoms: O21_21  and  C22_22
REMARK   13  A    between atoms: C22_22  and  C24_24
REMARK   14  A    between atoms: C30_30  and  O31_31
REMARK   15  A    between atoms: O31_31  and  C32_32
REMARK   16  A    between atoms: C32_32  and  C34_34
REMARK   17  A    between atoms: C40_40  and  O41_41
REMARK                            x       y       z     vdW  Elec       q    Type
REMARK                         _______ _______ _______ _____ _____    ______ ____
ROOT
ATOM      1  C   UNL     1       1.700   1.196   0.868  0.00  0.00    -0.090 C 
ATOM      2  C   UNL     1       1.237   2.326   1.790  0.00  0.00    +0.050 C 
ATOM      3  C   UNL     1       2.355   3.361   1.930  0.00  0.00    +0.010 C 
ATOM      4  C   UNL     1       3.596   2.693   2.526  0.00  0.00    +0.060 C 
ATOM      5  C   UNL     1       4.059   1.563   1.603  0.00  0.00    -0.050 C 
ATOM      6  C   UNL     1       2.941   0.528   1.463  0.00  0.00    +0.210 C 
ENDROOT
BRANCH   6   7
ATOM      7  O   UNL     1       2.623  -0.007   2.749  0.00  0.00    -0.550 OA
ATOM      8  H   UNL     1       1.920  -0.671   2.737  0.00  0.00    +0.380 HD
ENDBRANCH   6   7
BRANCH   5   9
ATOM      9  C   UNL     1       4.399   2.136   0.226  0.00  0.00    +0.260 C 
BRANCH   9  10
ATOM     10  O   UNL     1       4.226   1.106  -0.783  0.00  0.00    -0.340 OA
BRANCH  10  11
ATOM     11  C   UNL     1       5.161   1.034  -1.750  0.00  0.00    +0.510 C 
ATOM     12  O   UNL     1       5.996   1.911  -1.855  0.00  0.00    -0.490 OA
BRANCH  11  13
ATOM     13  C   UNL     1       5.172  -0.112  -2.683  0.00  0.00    -0.180 A 
ATOM     14  C   UNL     1       6.194  -0.249  -3.630  0.00  0.00    +0.140 A 
ATOM     15  C   UNL     1       6.158  -1.340  -4.480  0.00  0.00    -0.030 A 
ATOM     16  C   UNL     1       5.124  -2.251  -4.369  0.00  0.00    +0.310 A 
ATOM     17  N   UNL     1       4.174  -2.096  -3.466  0.00  0.00    -0.470 NA
ATOM     18  C   UNL     1       4.167  -1.079  -2.631  0.00  0.00    +0.310 A 
ENDBRANCH  11  13
ENDBRANCH  10  11
ENDBRANCH   9  10
ENDBRANCH   5   9
BRANCH   5  19
ATOM     19  C   UNL     1       5.300   0.895   2.199  0.00  0.00    +0.250 C 
BRANCH  19  20
ATOM     20  O   UNL     1       6.329   1.895   2.420  0.00  0.00    -0.350 OA
BRANCH  20  21
ATOM     21  C   UNL     1       7.458   1.487   3.031  0.00  0.00    +0.520 C 
ATOM     22  O   UNL     1       7.542   0.352   3.456  0.00  0.00    -0.500 OA
BRANCH  21  23
ATOM     23  C   UNL     1       8.594   2.418   3.183  0.00  0.00    -0.180 A 
ATOM     24  C   UNL     1       9.731   2.042   3.909  0.00  0.00    +0.140 A 
ATOM     25  C   UNL     1      10.768   2.952   4.022  0.00  0.00    -0.030 A 
ATOM     26  C   UNL     1      10.649   4.192   3.421  0.00  0.00    +0.300 A 
ATOM     27  N   UNL     1       9.565   4.519   2.743  0.00  0.00    -0.490 NA
ATOM     28  C   UNL     1       8.555   3.687   2.602  0.00  0.00    +0.330 A 
ENDBRANCH  21  23
ENDBRANCH  20  21
ENDBRANCH  19  20
ENDBRANCH   5  19
BRANCH   1  29
ATOM     29  C   UNL     1       2.040   1.770  -0.509  0.00  0.00    +0.250 C 
BRANCH  29  30
ATOM     30  O   UNL     1       1.869   0.739  -1.518  0.00  0.00    -0.340 OA
BRANCH  30  31
ATOM     31  C   UNL     1       1.358   1.123  -2.704  0.00  0.00    +0.510 C 
ATOM     32  O   UNL     1       1.137   2.298  -2.918  0.00  0.00    -0.500 OA
BRANCH  31  33
ATOM     33  C   UNL     1       1.067   0.115  -3.744  0.00  0.00    -0.190 A 
ATOM     34  C   UNL     1       0.350   0.465  -4.894  0.00  0.00    +0.140 A 
ATOM     35  C   UNL     1       0.104  -0.517  -5.838  0.00  0.00    -0.040 A 
ATOM     36  C   UNL     1       0.569  -1.801  -5.617  0.00  0.00    +0.290 A 
ATOM     37  N   UNL     1       1.242  -2.102  -4.522  0.00  0.00    -0.470 NA
ATOM     38  C   UNL     1       1.507  -1.203  -3.598  0.00  0.00    +0.330 A 
ENDBRANCH  31  33
ENDBRANCH  30  31
ENDBRANCH  29  30
ENDBRANCH   1  29
BRANCH   1  39
ATOM     39  C   UNL     1       0.581   0.162   0.728  0.00  0.00    +0.250 C 
BRANCH  39  40
ATOM     40  O   UNL     1      -0.600   0.798   0.173  0.00  0.00    -0.340 OA
BRANCH  40  42
ATOM     41  O   UNL     1      -1.672  -1.137   0.355  0.00  0.00    -0.500 OA
ATOM     42  C   UNL     1      -1.713   0.045   0.078  0.00  0.00    +0.520 C 
BRANCH  42  43
ATOM     43  C   UNL     1      -2.982   0.655  -0.368  0.00  0.00    -0.180 A 
ATOM     44  C   UNL     1      -4.170  -0.087  -0.363  0.00  0.00    +0.140 A 
ATOM     45  C   UNL     1      -5.331   0.532  -0.791  0.00  0.00    -0.030 A 
ATOM     46  C   UNL     1      -5.283   1.851  -1.205  0.00  0.00    +0.300 A 
ATOM     47  N   UNL     1      -4.149   2.526  -1.199  0.00  0.00    -0.490 NA
ATOM     48  C   UNL     1      -3.019   1.984  -0.796  0.00  0.00    +0.330 A 
ENDBRANCH  42  43
ENDBRANCH  40  42
ENDBRANCH  39  40
ENDBRANCH   1  39
TORSDOF 17
