@<TRIPOS>MOLECULE
ZINC000004213975
79    83    1     0     0
SMALL
USER_CHARGES
@<TRIPOS>ATOM
1      O1     -1.6718   -1.1369    0.3549 O.2      1 ZINC000004213975   -0.5000
2      C2     -1.7130    0.0452    0.0784 C.2      1 ZINC000004213975    0.5200
3      O3     -0.6002    0.7984    0.1735 O.3      1 ZINC000004213975   -0.3400
4      C4      0.5812    0.1619    0.7278 C.3      1 ZINC000004213975    0.0800
5      C5      1.6996    1.1965    0.8679 C.3      1 ZINC000004213975   -0.0900
6      C6      2.0398    1.7695   -0.5093 C.3      1 ZINC000004213975    0.0000
7      O7      1.8691    0.7390   -1.5179 O.3      1 ZINC000004213975   -0.3400
8      C8      1.3583    1.1227   -2.7039 C.2      1 ZINC000004213975    0.5100
9      O9      1.1372    2.2977   -2.9184 O.2      1 ZINC000004213975   -0.5000
10     C10     1.0672    0.1145   -3.7436 C.ar     1 ZINC000004213975   -0.1900
11     C11     0.3505    0.4650   -4.8945 C.ar     1 ZINC000004213975   -0.0100
12     C12     0.1042   -0.5169   -5.8380 C.ar     1 ZINC000004213975   -0.1900
13     C13     0.5692   -1.8006   -5.6165 C.ar     1 ZINC000004213975    0.1300
14     N14     1.2422   -2.1023   -4.5223 N.ar     1 ZINC000004213975   -0.4700
15     C15     1.5068   -1.2026   -3.5983 C.ar     1 ZINC000004213975    0.1600
16     C16     1.2368    2.3262    1.7901 C.3      1 ZINC000004213975   -0.1100
17     C17     2.3552    3.3608    1.9303 C.3      1 ZINC000004213975   -0.1300
18     C18     3.5963    2.6928    2.5255 C.3      1 ZINC000004213975   -0.1100
19     C19     4.0592    1.5631    1.6033 C.3      1 ZINC000004213975   -0.0500
20     C20     4.3994    2.1361    0.2260 C.3      1 ZINC000004213975    0.0400
21     O21     4.2262    1.1063   -0.7829 O.3      1 ZINC000004213975   -0.3400
22     C22     5.1614    1.0339   -1.7498 C.2      1 ZINC000004213975    0.5100
23     O23     5.9956    1.9106   -1.8546 O.2      1 ZINC000004213975   -0.4900
24     C24     5.1723   -0.1115   -2.6825 C.ar     1 ZINC000004213975   -0.1800
25     C25     6.1945   -0.2486   -3.6298 C.ar     1 ZINC000004213975   -0.0100
26     C26     6.1583   -1.3397   -4.4803 C.ar     1 ZINC000004213975   -0.1800
27     C27     5.1239   -2.2512   -4.3687 C.ar     1 ZINC000004213975    0.1400
28     N28     4.1737   -2.0965   -3.4661 N.ar     1 ZINC000004213975   -0.4700
29     C29     4.1670   -1.0788   -2.6308 C.ar     1 ZINC000004213975    0.1400
30     C30     5.3003    0.8950    2.1985 C.3      1 ZINC000004213975    0.0800
31     O31     6.3293    1.8953    2.4197 O.3      1 ZINC000004213975   -0.3500
32     C32     7.4581    1.4867    3.0307 C.2      1 ZINC000004213975    0.5200
33     O33     7.5419    0.3520    3.4561 O.2      1 ZINC000004213975   -0.5000
34     C34     8.5942    2.4184    3.1833 C.ar     1 ZINC000004213975   -0.1800
35     C35     9.7312    2.0422    3.9091 C.ar     1 ZINC000004213975   -0.0100
36     C36    10.7677    2.9521    4.0222 C.ar     1 ZINC000004213975   -0.1800
37     C37    10.6489    4.1920    3.4207 C.ar     1 ZINC000004213975    0.1300
38     N38     9.5653    4.5194    2.7426 N.ar     1 ZINC000004213975   -0.4900
39     C39     8.5551    3.6870    2.6016 C.ar     1 ZINC000004213975    0.1600
40     C40     2.9407    0.5285    1.4631 C.3      1 ZINC000004213975    0.1300
41     O41     2.6230   -0.0067    2.7495 O.3      1 ZINC000004213975   -0.5500
42     C42    -2.9821    0.6555   -0.3677 C.ar     1 ZINC000004213975   -0.1800
43     C43    -4.1696   -0.0867   -0.3631 C.ar     1 ZINC000004213975   -0.0100
44     C44    -5.3312    0.5319   -0.7909 C.ar     1 ZINC000004213975   -0.1800
45     C45    -5.2830    1.8506   -1.2053 C.ar     1 ZINC000004213975    0.1300
46     N46    -4.1493    2.5259   -1.1990 N.ar     1 ZINC000004213975   -0.4900
47     C47    -3.0192    1.9839   -0.7958 C.ar     1 ZINC000004213975    0.1600
48     H48     0.3447   -0.2524    1.7079 H        1 ZINC000004213975    0.0800
49     H49     0.9079   -0.6386    0.0641 H        1 ZINC000004213975    0.0900
50     H50     1.3765    2.6061   -0.7287 H        1 ZINC000004213975    0.0900
51     H51     3.0737    2.1147   -0.5140 H        1 ZINC000004213975    0.1600
52     H52    -0.0013    1.4754   -5.0417 H        1 ZINC000004213975    0.1500
53     H53    -0.4457   -0.2834   -6.7377 H        1 ZINC000004213975    0.1500
54     H54     0.3780   -2.5688   -6.3512 H        1 ZINC000004213975    0.1600
55     H55     2.0605   -1.4879   -2.7160 H        1 ZINC000004213975    0.1700
56     H56     0.3526    2.8022    1.3661 H        1 ZINC000004213975    0.0800
57     H57     0.9944    1.9180    2.7713 H        1 ZINC000004213975    0.0800
58     H58     2.5975    3.7690    0.9491 H        1 ZINC000004213975    0.0600
59     H59     2.0254    4.1657    2.5872 H        1 ZINC000004213975    0.0800
60     H60     4.3931    3.4299    2.6253 H        1 ZINC000004213975    0.0800
61     H61     3.3539    2.2846    3.5066 H        1 ZINC000004213975    0.0900
62     H62     3.7373    2.9739    0.0074 H        1 ZINC000004213975    0.1100
63     H63     5.4338    2.4795    0.2208 H        1 ZINC000004213975    0.1100
64     H64     6.9903    0.4785   -3.6953 H        1 ZINC000004213975    0.1500
65     H65     6.9295   -1.4780   -5.2236 H        1 ZINC000004213975    0.1500
66     H66     5.0931   -3.1034   -5.0314 H        1 ZINC000004213975    0.1700
67     H67     3.3718   -0.9864   -1.9058 H        1 ZINC000004213975    0.1700
68     H68     5.0404    0.4252    3.1470 H        1 ZINC000004213975    0.1000
69     H69     5.6719    0.1380    1.5079 H        1 ZINC000004213975    0.0700
70     H70     9.7973    1.0673    4.3690 H        1 ZINC000004213975    0.1500
71     H71    11.6599    2.6969    4.5747 H        1 ZINC000004213975    0.1500
72     H72    11.4563    4.9040    3.5078 H        1 ZINC000004213975    0.1700
73     H73     7.6849    3.9914    2.0391 H        1 ZINC000004213975    0.1700
74     H74     3.2705   -0.2763    0.8062 H        1 ZINC000004213975    0.0800
75     H75     1.9201   -0.6706    2.7366 H        1 ZINC000004213975    0.3800
76     H76    -4.1785   -1.1155   -0.0345 H        1 ZINC000004213975    0.1500
77     H77    -6.2657   -0.0095   -0.8013 H        1 ZINC000004213975    0.1500
78     H78    -6.1881    2.3356   -1.5399 H        1 ZINC000004213975    0.1700
79     H79    -2.1114    2.5689   -0.8053 H        1 ZINC000004213975    0.1700
@<TRIPOS>BOND
1     1     2     2
2     2     3     1
3     2     42    1
4     3     4     1
5     4     5     1
6     4     48    1
7     4     49    1
8     5     40    1
9     5     6     1
10    5     16    1
11    6     7     1
12    6     50    1
13    6     51    1
14    7     8     1
15    8     9     2
16    8     10    1
17    10    15    ar
18    10    11    ar
19    11    12    ar
20    11    52    1
21    12    13    ar
22    12    53    1
23    13    14    ar
24    13    54    1
25    14    15    ar
26    15    55    1
27    16    17    1
28    16    56    1
29    16    57    1
30    17    18    1
31    17    58    1
32    17    59    1
33    18    19    1
34    18    60    1
35    18    61    1
36    19    20    1
37    19    30    1
38    19    40    1
39    20    21    1
40    20    62    1
41    20    63    1
42    21    22    1
43    22    23    2
44    22    24    1
45    24    29    ar
46    24    25    ar
47    25    26    ar
48    25    64    1
49    26    27    ar
50    26    65    1
51    27    28    ar
52    27    66    1
53    28    29    ar
54    29    67    1
55    30    31    1
56    30    68    1
57    30    69    1
58    31    32    1
59    32    33    2
60    32    34    1
61    34    39    ar
62    34    35    ar
63    35    36    ar
64    35    70    1
65    36    37    ar
66    36    71    1
67    37    38    ar
68    37    72    1
69    38    39    ar
70    39    73    1
71    40    41    1
72    40    74    1
73    41    75    1
74    42    47    ar
75    42    43    ar
76    43    44    ar
77    43    76    1
78    44    45    ar
79    44    77    1
80    45    46    ar
81    45    78    1
82    46    47    ar
83    47    79    1
@<TRIPOS>SUBSTRUCTURE
1   ZINC000004213975 1     RESIDUE    1   A     ZIN   1
