@<TRIPOS>MOLECULE
ZINC000006716957
61    65    1     0     0
SMALL
USER_CHARGES
@<TRIPOS>ATOM
1      C1      3.3747   -9.6471   -0.9403 C.3      1 ZINC000006716957   -0.0700
2      C2      2.5787   -8.3886   -0.7088 C.2      1 ZINC000006716957    0.0100
3      C3      2.1021   -7.5687   -1.6648 C.2      1 ZINC000006716957   -0.0500
4      N4      1.4421   -6.5525   -1.0234 N.pl3    1 ZINC000006716957   -0.4100
5      C5      0.7877   -5.4703   -1.6295 C.ar     1 ZINC000006716957    0.1700
6      C6      0.7635   -5.3597   -3.0116 C.ar     1 ZINC000006716957   -0.1200
7      C7      0.1144   -4.2875   -3.6078 C.ar     1 ZINC000006716957    0.1900
8      N8      0.0873   -4.1726   -5.0013 N.am     1 ZINC000006716957   -0.6700
9      C9      0.1942   -5.2741   -5.7705 C.2      1 ZINC000006716957    0.5700
10     O10     0.2062   -6.3756   -5.2565 O.2      1 ZINC000006716957   -0.5100
11     C11     0.2966   -5.1428   -7.2394 C.ar     1 ZINC000006716957   -0.1300
12     C12     0.2888   -3.8788   -7.8318 C.ar     1 ZINC000006716957   -0.1000
13     C13     0.3846   -3.7588   -9.2034 C.ar     1 ZINC000006716957   -0.1100
14     C14     0.4884   -4.8870   -9.9949 C.ar     1 ZINC000006716957   -0.0800
15     C15     0.5926   -4.7472  -11.4918 C.3      1 ZINC000006716957   -0.1200
16     C16     0.4976   -6.1504   -9.4149 C.ar     1 ZINC000006716957    0.1600
17     N17     0.6039   -7.2888  -10.2202 N.pl3    1 ZINC000006716957   -0.6400
18     C18    -0.0589   -8.4525   -9.8654 C.ar     1 ZINC000006716957    0.5600
19     N19    -0.7186   -8.4951   -8.7170 N.ar     1 ZINC000006716957   -0.5600
20     C20    -1.3647   -9.5881   -8.3426 C.ar     1 ZINC000006716957    0.2000
21     C21    -1.3478  -10.6997   -9.1660 C.ar     1 ZINC000006716957   -0.2700
22     C22    -0.6437  -10.6251  -10.3709 C.ar     1 ZINC000006716957    0.2700
23     C23    -0.5958  -11.7894  -11.2883 C.ar     1 ZINC000006716957   -0.1200
24     C24     0.1966  -11.7547  -12.4392 C.ar     1 ZINC000006716957   -0.0300
25     C25     0.2068  -12.8673  -13.2631 C.ar     1 ZINC000006716957   -0.1800
26     C26    -0.5600  -13.9669  -12.9243 C.ar     1 ZINC000006716957    0.1200
27     N27    -1.2984  -13.9706  -11.8310 N.ar     1 ZINC000006716957   -0.4800
28     C28    -1.3357  -12.9382  -11.0139 C.ar     1 ZINC000006716957    0.1300
29     N29    -0.0213   -9.4914  -10.6849 N.ar     1 ZINC000006716957   -0.5600
30     C30     0.4073   -6.2814   -8.0378 C.ar     1 ZINC000006716957   -0.0500
31     C31    -0.5087   -3.3289   -2.8188 C.ar     1 ZINC000006716957   -0.1100
32     C32    -0.4821   -3.4422   -1.4420 C.ar     1 ZINC000006716957   -0.1300
33     C33    -1.1590   -2.4007   -0.5887 C.3      1 ZINC000006716957    0.5100
34     F34    -1.7388   -1.4288   -1.4112 F        1 ZINC000006716957   -0.1700
35     F35    -2.1522   -3.0074    0.1877 F        1 ZINC000006716957   -0.1700
36     F36    -0.2144   -1.7989    0.2497 F        1 ZINC000006716957   -0.1700
37     C37     0.1584   -4.5115   -0.8462 C.ar     1 ZINC000006716957   -0.1100
38     C38     1.5415   -6.7920    0.3099 C.2      1 ZINC000006716957    0.1900
39     N39     2.2176   -7.8946    0.4848 N.2      1 ZINC000006716957   -0.4800
40     H40     2.6955  -10.4945   -1.0341 H        1 ZINC000006716957    0.0700
41     H41     3.9573   -9.5453   -1.8559 H        1 ZINC000006716957    0.0700
42     H42     4.0470   -9.8118   -0.0982 H        1 ZINC000006716957    0.0700
43     H43     2.2179   -7.6885   -2.7318 H        1 ZINC000006716957    0.1800
44     H44     1.2491   -6.1062   -3.6227 H        1 ZINC000006716957    0.1600
45     H45    -0.0083   -3.3001   -5.4142 H        1 ZINC000006716957    0.4200
46     H46     0.2074   -2.9947   -7.2168 H        1 ZINC000006716957    0.1300
47     H47     0.3779   -2.7800   -9.6598 H        1 ZINC000006716957    0.1400
48     H48     1.6418   -4.6719  -11.7776 H        1 ZINC000006716957    0.0800
49     H49     0.1475   -5.6197  -11.9701 H        1 ZINC000006716957    0.0700
50     H50     0.0639   -3.8488  -11.8105 H        1 ZINC000006716957    0.0800
51     H51     1.1416   -7.2636  -11.0271 H        1 ZINC000006716957    0.4300
52     H52    -1.8989   -9.6119   -7.4043 H        1 ZINC000006716957    0.1800
53     H53    -1.8664  -11.6041   -8.8840 H        1 ZINC000006716957    0.1500
54     H54     0.7857  -10.8820  -12.6799 H        1 ZINC000006716957    0.1500
55     H55     0.8069  -12.8761  -14.1610 H        1 ZINC000006716957    0.1400
56     H56    -0.5547  -14.8364  -13.5649 H        1 ZINC000006716957    0.1600
57     H57    -1.9524  -12.9787  -10.1282 H        1 ZINC000006716957    0.1600
58     H58     0.4146   -7.2619   -7.5852 H        1 ZINC000006716957    0.1600
59     H59    -1.0140   -2.4943   -3.2819 H        1 ZINC000006716957    0.1500
60     H60     0.1771   -4.5973    0.2302 H        1 ZINC000006716957    0.1500
61     H61     1.1264   -6.1759    1.0938 H        1 ZINC000006716957    0.2100
@<TRIPOS>BOND
1     1     2     1
2     1     40    1
3     1     41    1
4     1     42    1
5     2     39    1
6     2     3     2
7     3     4     1
8     3     43    1
9     4     5     1
10    4     38    1
11    5     37    ar
12    5     6     ar
13    6     7     ar
14    6     44    1
15    7     8     1
16    7     31    ar
17    8     9     am
18    8     45    1
19    9     10    2
20    9     11    1
21    11    30    ar
22    11    12    ar
23    12    13    ar
24    12    46    1
25    13    14    ar
26    13    47    1
27    14    15    1
28    14    16    ar
29    15    48    1
30    15    49    1
31    15    50    1
32    16    17    1
33    16    30    ar
34    17    18    1
35    17    51    1
36    18    29    ar
37    18    19    ar
38    19    20    ar
39    20    21    ar
40    20    52    1
41    21    22    ar
42    21    53    1
43    22    23    1
44    22    29    ar
45    23    28    ar
46    23    24    ar
47    24    25    ar
48    24    54    1
49    25    26    ar
50    25    55    1
51    26    27    ar
52    26    56    1
53    27    28    ar
54    28    57    1
55    30    58    1
56    31    32    ar
57    31    59    1
58    32    33    1
59    32    37    ar
60    33    34    1
61    33    35    1
62    33    36    1
63    37    60    1
64    38    39    2
65    38    61    1
@<TRIPOS>SUBSTRUCTURE
1   ZINC000006716957 1     RESIDUE    1   A     ZIN   1
