REMARK  Name = ZINC000006716957
REMARK  8 active torsions:
REMARK  status: ('A' for Active; 'I' for Inactive)
REMARK    1  A    between atoms: C1_1  and  C2_2
REMARK    2  A    between atoms: N4_4  and  C5_5
REMARK    3  A    between atoms: C7_7  and  N8_8
REMARK    4  A    between atoms: C9_9  and  C11_11
REMARK    5  A    between atoms: C14_14  and  C15_15
REMARK    6  A    between atoms: C16_16  and  N17_17
REMARK    7  A    between atoms: C22_22  and  C23_23
REMARK    8  A    between atoms: C32_32  and  C33_33
REMARK                            x       y       z     vdW  Elec       q    Type
REMARK                         _______ _______ _______ _____ _____    ______ ____
ROOT
ATOM      1  C   UNL     1       0.297  -5.143  -7.239  0.00  0.00    -0.130 A 
ATOM      2  C   UNL     1       0.289  -3.879  -7.832  0.00  0.00    +0.030 A 
ATOM      3  C   UNL     1       0.385  -3.759  -9.203  0.00  0.00    +0.030 A 
ATOM      4  C   UNL     1       0.488  -4.887  -9.995  0.00  0.00    -0.080 A 
ATOM      5  C   UNL     1       0.498  -6.150  -9.415  0.00  0.00    +0.160 A 
ATOM      6  C   UNL     1       0.593  -4.747 -11.492  0.00  0.00    +0.110 C 
ATOM      7  C   UNL     1       0.407  -6.281  -8.038  0.00  0.00    +0.110 A 
ENDROOT
BRANCH   5   8
ATOM      8  N   UNL     1       0.604  -7.289 -10.220  0.00  0.00    -0.640 N 
ATOM      9  H   UNL     1       1.142  -7.264 -11.027  0.00  0.00    +0.430 HD
ATOM     10  C   UNL     1      -0.059  -8.453  -9.865  0.00  0.00    +0.560 A 
ATOM     11  N   UNL     1      -0.719  -8.495  -8.717  0.00  0.00    -0.560 NA
ATOM     12  C   UNL     1      -1.365  -9.588  -8.343  0.00  0.00    +0.380 A 
ATOM     13  C   UNL     1      -1.348 -10.700  -9.166  0.00  0.00    -0.120 A 
ATOM     14  C   UNL     1      -0.644 -10.625 -10.371  0.00  0.00    +0.270 A 
ATOM     15  N   UNL     1      -0.021  -9.491 -10.685  0.00  0.00    -0.560 NA
BRANCH  14  16
ATOM     16  C   UNL     1      -0.596 -11.789 -11.288  0.00  0.00    -0.120 A 
ATOM     17  C   UNL     1       0.197 -11.755 -12.439  0.00  0.00    +0.120 A 
ATOM     18  C   UNL     1       0.207 -12.867 -13.263  0.00  0.00    -0.040 A 
ATOM     19  C   UNL     1      -0.560 -13.967 -12.924  0.00  0.00    +0.280 A 
ATOM     20  N   UNL     1      -1.298 -13.971 -11.831  0.00  0.00    -0.480 NA
ATOM     21  C   UNL     1      -1.336 -12.938 -11.014  0.00  0.00    +0.290 A 
ENDBRANCH  14  16
ENDBRANCH   5   8
BRANCH   1  24
ATOM     22  N   UNL     1       0.087  -4.173  -5.001  0.00  0.00    -0.670 N 
ATOM     23  H   UNL     1      -0.008  -3.300  -5.414  0.00  0.00    +0.420 HD
ATOM     24  C   UNL     1       0.194  -5.274  -5.771  0.00  0.00    +0.570 C 
ATOM     25  O   UNL     1       0.206  -6.376  -5.256  0.00  0.00    -0.510 OA
BRANCH  22  28
ATOM     26  C   UNL     1       0.788  -5.470  -1.629  0.00  0.00    +0.170 A 
ATOM     27  C   UNL     1       0.763  -5.360  -3.012  0.00  0.00    +0.040 A 
ATOM     28  C   UNL     1       0.114  -4.287  -3.608  0.00  0.00    +0.190 A 
ATOM     29  C   UNL     1      -0.509  -3.329  -2.819  0.00  0.00    +0.040 A 
ATOM     30  C   UNL     1      -0.482  -3.442  -1.442  0.00  0.00    -0.130 A 
ATOM     31  C   UNL     1       0.158  -4.511  -0.846  0.00  0.00    +0.040 A 
BRANCH  26  35
ATOM     32  C   UNL     1       3.375  -9.647  -0.940  0.00  0.00    +0.140 C 
ATOM     33  C   UNL     1       2.579  -8.389  -0.709  0.00  0.00    +0.010 A 
ATOM     34  C   UNL     1       2.102  -7.569  -1.665  0.00  0.00    +0.130 A 
ATOM     35  N   UNL     1       1.442  -6.553  -1.023  0.00  0.00    -0.410 N 
ATOM     36  C   UNL     1       1.542  -6.792   0.310  0.00  0.00    +0.400 A 
ATOM     37  N   UNL     1       2.218  -7.895   0.485  0.00  0.00    -0.480 NA
ENDBRANCH  26  35
BRANCH  30  38
ATOM     38  C   UNL     1      -1.159  -2.401  -0.589  0.00  0.00    +0.510 C 
ATOM     39  F   UNL     1      -0.214  -1.799   0.250  0.00  0.00    -0.170 F 
ATOM     40  F   UNL     1      -2.152  -3.007   0.188  0.00  0.00    -0.170 F 
ATOM     41  F   UNL     1      -1.739  -1.429  -1.411  0.00  0.00    -0.170 F 
ENDBRANCH  30  38
ENDBRANCH  22  28
ENDBRANCH   1  24
TORSDOF 6
