MODEL 1
REMARK VINA RESULT:      -8.0      0.000      0.000
REMARK  Name = ZINC000030691797
REMARK  4 active torsions:
REMARK  status: ('A' for Active; 'I' for Inactive)
REMARK    1  A    between atoms: C2_2  and  C3_3
REMARK    2  A    between atoms: C8_8  and  C9_9
REMARK    3  A    between atoms: C11_11  and  C12_12
REMARK    4  A    between atoms: N19_19  and  C20_20
REMARK                            x       y       z     vdW  Elec       q    Type
REMARK                         _______ _______ _______ _____ _____    ______ ____
ROOT
ATOM      1  C   UNL     1     -20.778  -4.809 -26.323  0.00  0.00    -0.200 A 
ATOM      2  C   UNL     1     -21.040  -4.496 -27.647  0.00  0.00    +0.190 A 
ATOM      3  C   UNL     1     -22.343  -4.101 -28.010  0.00  0.00    -0.150 A 
ATOM      4  C   UNL     1     -23.327  -4.032 -27.049  0.00  0.00    +0.340 A 
ATOM      5  N   UNL     1     -23.058  -4.340 -25.756  0.00  0.00    -0.450 N 
ATOM      6  C   UNL     1     -21.827  -4.727 -25.375  0.00  0.00    +0.530 A 
ATOM      7  O   UNL     1     -21.611  -5.000 -24.205  0.00  0.00    -0.510 OA
ENDROOT
BRANCH   1  13
ATOM      8  C   UNL     1     -19.024  -6.572 -26.037  0.00  0.00    -0.020 A 
ATOM      9  C   UNL     1     -17.742  -6.952 -25.639  0.00  0.00    +0.070 A 
ATOM     10  C   UNL     1     -16.875  -6.013 -25.118  0.00  0.00    +0.020 A 
ATOM     11  C   UNL     1     -17.269  -4.691 -24.986  0.00  0.00    +0.040 A 
ATOM     12  C   UNL     1     -18.534  -4.296 -25.373  0.00  0.00    +0.040 A 
ATOM     13  C   UNL     1     -19.422  -5.227 -25.908  0.00  0.00    +0.030 A 
BRANCH   8  15
ATOM     14  N   UNL     1     -20.644  -8.309 -27.012  0.00  0.00    -0.410 NA
ATOM     15  C   UNL     1     -19.928  -7.541 -26.580  0.00  0.00    +0.250 C 
ENDBRANCH   8  15
ENDBRANCH   1  13
BRANCH   5  16
ATOM     16  C   UNL     1     -24.081  -4.259 -24.803  0.00  0.00    +0.090 A 
ATOM     17  C   UNL     1     -24.892  -5.359 -24.559  0.00  0.00    +0.040 A 
ATOM     18  C   UNL     1     -25.900  -5.277 -23.618  0.00  0.00    +0.020 A 
ATOM     19  C   UNL     1     -26.102  -4.100 -22.920  0.00  0.00    +0.030 A 
ATOM     20  C   UNL     1     -25.296  -3.003 -23.162  0.00  0.00    +0.020 A 
ATOM     21  C   UNL     1     -24.282  -3.080 -24.096  0.00  0.00    +0.030 A 
ENDBRANCH   5  16
BRANCH   3  22
ATOM     22  C   UNL     1     -22.653  -3.760 -29.419  0.00  0.00    +0.190 A 
ATOM     23  C   UNL     1     -22.117  -4.528 -30.451  0.00  0.00    -0.040 A 
ATOM     24  C   UNL     1     -22.416  -4.198 -31.761  0.00  0.00    +0.080 A 
ATOM     25  C   UNL     1     -23.242  -3.107 -31.997  0.00  0.00    -0.040 A 
ATOM     26  C   UNL     1     -23.739  -2.389 -30.926  0.00  0.00    +0.270 A 
ATOM     27  N   UNL     1     -23.443  -2.728 -29.688  0.00  0.00    -0.480 NA
ENDBRANCH   3  22
TORSDOF 4
ENDMDL
MODEL 2
REMARK VINA RESULT:      -7.9      0.956      5.223
REMARK  Name = ZINC000030691797
REMARK  4 active torsions:
REMARK  status: ('A' for Active; 'I' for Inactive)
REMARK    1  A    between atoms: C2_2  and  C3_3
REMARK    2  A    between atoms: C8_8  and  C9_9
REMARK    3  A    between atoms: C11_11  and  C12_12
REMARK    4  A    between atoms: N19_19  and  C20_20
REMARK                            x       y       z     vdW  Elec       q    Type
REMARK                         _______ _______ _______ _____ _____    ______ ____
ROOT
ATOM      1  C   UNL     1     -23.097  -4.473 -25.622  0.00  0.00    -0.200 A 
ATOM      2  C   UNL     1     -23.384  -4.152 -26.939  0.00  0.00    +0.190 A 
ATOM      3  C   UNL     1     -22.346  -4.186 -27.890  0.00  0.00    -0.150 A 
ATOM      4  C   UNL     1     -21.073  -4.537 -27.499  0.00  0.00    +0.340 A 
ATOM      5  N   UNL     1     -20.805  -4.851 -26.208  0.00  0.00    -0.450 N 
ATOM      6  C   UNL     1     -21.770  -4.822 -25.270  0.00  0.00    +0.530 A 
ATOM      7  O   UNL     1     -21.504  -5.108 -24.115  0.00  0.00    -0.510 OA
ENDROOT
BRANCH   1  13
ATOM      8  C   UNL     1     -24.889  -5.616 -24.298  0.00  0.00    -0.020 A 
ATOM      9  C   UNL     1     -25.892  -5.575 -23.329  0.00  0.00    +0.070 A 
ATOM     10  C   UNL     1     -26.170  -4.392 -22.675  0.00  0.00    +0.020 A 
ATOM     11  C   UNL     1     -25.459  -3.241 -22.973  0.00  0.00    +0.040 A 
ATOM     12  C   UNL     1     -24.464  -3.261 -23.930  0.00  0.00    +0.040 A 
ATOM     13  C   UNL     1     -24.162  -4.447 -24.597  0.00  0.00    +0.030 A 
BRANCH   8  15
ATOM     14  N   UNL     1     -24.362  -7.813 -25.519  0.00  0.00    -0.410 NA
ATOM     15  C   UNL     1     -24.594  -6.841 -24.979  0.00  0.00    +0.250 C 
ENDBRANCH   8  15
ENDBRANCH   1  13
BRANCH   5  16
ATOM     16  C   UNL     1     -19.500  -5.204 -25.842  0.00  0.00    +0.090 A 
ATOM     17  C   UNL     1     -19.109  -6.537 -25.861  0.00  0.00    +0.040 A 
ATOM     18  C   UNL     1     -17.821  -6.882 -25.500  0.00  0.00    +0.020 A 
ATOM     19  C   UNL     1     -16.923  -5.903 -25.119  0.00  0.00    +0.030 A 
ATOM     20  C   UNL     1     -17.310  -4.575 -25.098  0.00  0.00    +0.020 A 
ATOM     21  C   UNL     1     -18.594  -4.222 -25.464  0.00  0.00    +0.030 A 
ENDBRANCH   5  16
BRANCH   3  22
ATOM     22  C   UNL     1     -22.622  -3.846 -29.308  0.00  0.00    +0.190 A 
ATOM     23  C   UNL     1     -22.071  -4.623 -30.325  0.00  0.00    -0.040 A 
ATOM     24  C   UNL     1     -22.338  -4.294 -31.642  0.00  0.00    +0.080 A 
ATOM     25  C   UNL     1     -23.148  -3.196 -31.900  0.00  0.00    -0.040 A 
ATOM     26  C   UNL     1     -23.661  -2.470 -30.842  0.00  0.00    +0.270 A 
ATOM     27  N   UNL     1     -23.396  -2.807 -29.596  0.00  0.00    -0.480 NA
ENDBRANCH   3  22
TORSDOF 4
ENDMDL
MODEL 3
REMARK VINA RESULT:      -7.3     29.702     32.196
REMARK  Name = ZINC000030691797
REMARK  4 active torsions:
REMARK  status: ('A' for Active; 'I' for Inactive)
REMARK    1  A    between atoms: C2_2  and  C3_3
REMARK    2  A    between atoms: C8_8  and  C9_9
REMARK    3  A    between atoms: C11_11  and  C12_12
REMARK    4  A    between atoms: N19_19  and  C20_20
REMARK                            x       y       z     vdW  Elec       q    Type
REMARK                         _______ _______ _______ _____ _____    ______ ____
ROOT
ATOM      1  C   UNL     1       1.608  18.176 -30.214  0.00  0.00    -0.200 A 
ATOM      2  C   UNL     1       1.600  16.928 -30.813  0.00  0.00    +0.190 A 
ATOM      3  C   UNL     1       0.683  15.959 -30.359  0.00  0.00    -0.150 A 
ATOM      4  C   UNL     1      -0.183  16.269 -29.334  0.00  0.00    +0.340 A 
ATOM      5  N   UNL     1      -0.166  17.494 -28.755  0.00  0.00    -0.450 N 
ATOM      6  C   UNL     1       0.700  18.442 -29.159  0.00  0.00    +0.530 A 
ATOM      7  O   UNL     1       0.697  19.537 -28.622  0.00  0.00    -0.510 OA
ENDROOT
BRANCH   1  13
ATOM      8  C   UNL     1       3.830  19.323 -30.070  0.00  0.00    -0.020 A 
ATOM      9  C   UNL     1       4.714  20.310 -30.506  0.00  0.00    +0.070 A 
ATOM     10  C   UNL     1       4.337  21.178 -31.510  0.00  0.00    +0.020 A 
ATOM     11  C   UNL     1       3.083  21.077 -32.092  0.00  0.00    +0.040 A 
ATOM     12  C   UNL     1       2.194  20.107 -31.673  0.00  0.00    +0.040 A 
ATOM     13  C   UNL     1       2.557  19.216 -30.665  0.00  0.00    +0.030 A 
BRANCH   8  15
ATOM     14  N   UNL     1       4.522  17.702 -28.202  0.00  0.00    -0.410 NA
ATOM     15  C   UNL     1       4.215  18.418 -29.029  0.00  0.00    +0.250 C 
ENDBRANCH   8  15
ENDBRANCH   1  13
BRANCH   5  16
ATOM     16  C   UNL     1      -1.061  17.777 -27.716  0.00  0.00    +0.090 A 
ATOM     17  C   UNL     1      -1.504  19.077 -27.514  0.00  0.00    +0.040 A 
ATOM     18  C   UNL     1      -2.387  19.353 -26.488  0.00  0.00    +0.020 A 
ATOM     19  C   UNL     1      -2.827  18.336 -25.661  0.00  0.00    +0.030 A 
ATOM     20  C   UNL     1      -2.386  17.040 -25.859  0.00  0.00    +0.020 A 
ATOM     21  C   UNL     1      -1.509  16.757 -26.887  0.00  0.00    +0.030 A 
ENDBRANCH   5  16
BRANCH   3  22
ATOM     22  C   UNL     1       0.651  14.614 -30.982  0.00  0.00    +0.190 A 
ATOM     23  C   UNL     1       1.723  14.187 -31.762  0.00  0.00    -0.040 A 
ATOM     24  C   UNL     1       1.678  12.929 -32.336  0.00  0.00    +0.080 A 
ATOM     25  C   UNL     1       0.559  12.137 -32.112  0.00  0.00    -0.040 A 
ATOM     26  C   UNL     1      -0.468  12.624 -31.327  0.00  0.00    +0.270 A 
ATOM     27  N   UNL     1      -0.398  13.824 -30.787  0.00  0.00    -0.480 NA
ENDBRANCH   3  22
TORSDOF 4
ENDMDL
MODEL 4
REMARK VINA RESULT:      -7.3     27.150     29.530
REMARK  Name = ZINC000030691797
REMARK  4 active torsions:
REMARK  status: ('A' for Active; 'I' for Inactive)
REMARK    1  A    between atoms: C2_2  and  C3_3
REMARK    2  A    between atoms: C8_8  and  C9_9
REMARK    3  A    between atoms: C11_11  and  C12_12
REMARK    4  A    between atoms: N19_19  and  C20_20
REMARK                            x       y       z     vdW  Elec       q    Type
REMARK                         _______ _______ _______ _____ _____    ______ ____
ROOT
ATOM      1  C   UNL     1      -0.085  13.171 -35.167  0.00  0.00    -0.200 A 
ATOM      2  C   UNL     1      -0.238  11.855 -35.571  0.00  0.00    +0.190 A 
ATOM      3  C   UNL     1      -0.898  11.588 -36.787  0.00  0.00    -0.150 A 
ATOM      4  C   UNL     1      -1.374  12.632 -37.548  0.00  0.00    +0.340 A 
ATOM      5  N   UNL     1      -1.217  13.916 -37.142  0.00  0.00    -0.450 N 
ATOM      6  C   UNL     1      -0.599  14.208 -35.983  0.00  0.00    +0.530 A 
ATOM      7  O   UNL     1      -0.471  15.372 -35.639  0.00  0.00    -0.510 OA
ENDROOT
BRANCH   1  13
ATOM      8  C   UNL     1      -0.126  13.546 -32.691  0.00  0.00    -0.020 A 
ATOM      9  C   UNL     1       0.536  13.848 -31.501  0.00  0.00    +0.070 A 
ATOM     10  C   UNL     1       1.893  14.092 -31.510  0.00  0.00    +0.020 A 
ATOM     11  C   UNL     1       2.608  14.040 -32.696  0.00  0.00    +0.040 A 
ATOM     12  C   UNL     1       1.971  13.744 -33.884  0.00  0.00    +0.040 A 
ATOM     13  C   UNL     1       0.601  13.488 -33.896  0.00  0.00    +0.030 A 
BRANCH   8  15
ATOM     14  N   UNL     1      -2.653  13.086 -32.687  0.00  0.00    -0.410 NA
ATOM     15  C   UNL     1      -1.535  13.290 -32.689  0.00  0.00    +0.250 C 
ENDBRANCH   8  15
ENDBRANCH   1  13
BRANCH   5  16
ATOM     16  C   UNL     1      -1.713  14.955 -37.939  0.00  0.00    +0.090 A 
ATOM     17  C   UNL     1      -3.002  15.432 -37.738  0.00  0.00    +0.040 A 
ATOM     18  C   UNL     1      -3.488  16.457 -38.526  0.00  0.00    +0.020 A 
ATOM     19  C   UNL     1      -2.693  17.007 -39.515  0.00  0.00    +0.030 A 
ATOM     20  C   UNL     1      -1.410  16.533 -39.719  0.00  0.00    +0.020 A 
ATOM     21  C   UNL     1      -0.916  15.513 -38.930  0.00  0.00    +0.030 A 
ENDBRANCH   5  16
BRANCH   3  22
ATOM     22  C   UNL     1      -1.077  10.189 -37.246  0.00  0.00    +0.190 A 
ATOM     23  C   UNL     1      -0.284   9.178 -36.707  0.00  0.00    -0.040 A 
ATOM     24  C   UNL     1      -0.463   7.877 -37.146  0.00  0.00    +0.080 A 
ATOM     25  C   UNL     1      -1.431   7.630 -38.111  0.00  0.00    -0.040 A 
ATOM     26  C   UNL     1      -2.181   8.682 -38.601  0.00  0.00    +0.270 A 
ATOM     27  N   UNL     1      -1.994   9.910 -38.164  0.00  0.00    -0.480 NA
ENDBRANCH   3  22
TORSDOF 4
ENDMDL
MODEL 5
REMARK VINA RESULT:      -7.2     29.626     32.143
REMARK  Name = ZINC000030691797
REMARK  4 active torsions:
REMARK  status: ('A' for Active; 'I' for Inactive)
REMARK    1  A    between atoms: C2_2  and  C3_3
REMARK    2  A    between atoms: C8_8  and  C9_9
REMARK    3  A    between atoms: C11_11  and  C12_12
REMARK    4  A    between atoms: N19_19  and  C20_20
REMARK                            x       y       z     vdW  Elec       q    Type
REMARK                         _______ _______ _______ _____ _____    ______ ____
ROOT
ATOM      1  C   UNL     1       1.995  17.837 -29.500  0.00  0.00    -0.200 A 
ATOM      2  C   UNL     1       1.939  16.611 -30.143  0.00  0.00    +0.190 A 
ATOM      3  C   UNL     1       0.740  15.874 -30.100  0.00  0.00    -0.150 A 
ATOM      4  C   UNL     1      -0.349  16.380 -29.425  0.00  0.00    +0.340 A 
ATOM      5  N   UNL     1      -0.282  17.582 -28.801  0.00  0.00    -0.450 N 
ATOM      6  C   UNL     1       0.849  18.311 -28.815  0.00  0.00    +0.530 A 
ATOM      7  O   UNL     1       0.885  19.388 -28.244  0.00  0.00    -0.510 OA
ENDROOT
BRANCH   1  13
ATOM      8  C   UNL     1       3.407  19.657 -30.481  0.00  0.00    -0.020 A 
ATOM      9  C   UNL     1       4.587  20.403 -30.492  0.00  0.00    +0.070 A 
ATOM     10  C   UNL     1       5.580  20.135 -29.572  0.00  0.00    +0.020 A 
ATOM     11  C   UNL     1       5.415  19.128 -28.634  0.00  0.00    +0.040 A 
ATOM     12  C   UNL     1       4.256  18.379 -28.608  0.00  0.00    +0.040 A 
ATOM     13  C   UNL     1       3.238  18.638 -29.524  0.00  0.00    +0.030 A 
BRANCH   8  15
ATOM     14  N   UNL     1       1.552  20.147 -32.187  0.00  0.00    -0.410 NA
ATOM     15  C   UNL     1       2.372  19.931 -31.432  0.00  0.00    +0.250 C 
ENDBRANCH   8  15
ENDBRANCH   1  13
BRANCH   5  16
ATOM     16  C   UNL     1      -1.407  18.069 -28.124  0.00  0.00    +0.090 A 
ATOM     17  C   UNL     1      -2.255  18.976 -28.746  0.00  0.00    +0.040 A 
ATOM     18  C   UNL     1      -3.363  19.454 -28.075  0.00  0.00    +0.020 A 
ATOM     19  C   UNL     1      -3.628  19.033 -26.785  0.00  0.00    +0.030 A 
ATOM     20  C   UNL     1      -2.785  18.130 -26.163  0.00  0.00    +0.020 A 
ATOM     21  C   UNL     1      -1.679  17.643 -26.830  0.00  0.00    +0.030 A 
ENDBRANCH   5  16
BRANCH   3  22
ATOM     22  C   UNL     1       0.649  14.558 -30.779  0.00  0.00    +0.190 A 
ATOM     23  C   UNL     1       1.709  14.111 -31.564  0.00  0.00    -0.040 A 
ATOM     24  C   UNL     1       1.610  12.881 -32.191  0.00  0.00    +0.080 A 
ATOM     25  C   UNL     1       0.450  12.138 -32.013  0.00  0.00    -0.040 A 
ATOM     26  C   UNL     1      -0.563  12.643 -31.220  0.00  0.00    +0.270 A 
ATOM     27  N   UNL     1      -0.441  13.815 -30.630  0.00  0.00    -0.480 NA
ENDBRANCH   3  22
TORSDOF 4
ENDMDL
MODEL 6
REMARK VINA RESULT:      -7.2     27.663     30.150
REMARK  Name = ZINC000030691797
REMARK  4 active torsions:
REMARK  status: ('A' for Active; 'I' for Inactive)
REMARK    1  A    between atoms: C2_2  and  C3_3
REMARK    2  A    between atoms: C8_8  and  C9_9
REMARK    3  A    between atoms: C11_11  and  C12_12
REMARK    4  A    between atoms: N19_19  and  C20_20
REMARK                            x       y       z     vdW  Elec       q    Type
REMARK                         _______ _______ _______ _____ _____    ______ ____
ROOT
ATOM      1  C   UNL     1      -1.444  14.189 -37.131  0.00  0.00    -0.200 A 
ATOM      2  C   UNL     1      -1.566  12.880 -37.567  0.00  0.00    +0.190 A 
ATOM      3  C   UNL     1      -0.966  11.852 -36.814  0.00  0.00    -0.150 A 
ATOM      4  C   UNL     1      -0.275  12.164 -35.664  0.00  0.00    +0.340 A 
ATOM      5  N   UNL     1      -0.163  13.449 -35.247  0.00  0.00    -0.450 N 
ATOM      6  C   UNL     1      -0.718  14.457 -35.945  0.00  0.00    +0.530 A 
ATOM      7  O   UNL     1      -0.603  15.605 -35.549  0.00  0.00    -0.510 OA
ENDROOT
BRANCH   1  13
ATOM      8  C   UNL     1      -1.393  15.845 -39.008  0.00  0.00    -0.020 A 
ATOM      9  C   UNL     1      -1.988  16.887 -39.721  0.00  0.00    +0.070 A 
ATOM     10  C   UNL     1      -3.219  17.373 -39.332  0.00  0.00    +0.020 A 
ATOM     11  C   UNL     1      -3.873  16.834 -38.236  0.00  0.00    +0.040 A 
ATOM     12  C   UNL     1      -3.301  15.803 -37.518  0.00  0.00    +0.040 A 
ATOM     13  C   UNL     1      -2.061  15.293 -37.898  0.00  0.00    +0.030 A 
BRANCH   8  15
ATOM     14  N   UNL     1       0.896  14.929 -39.725  0.00  0.00    -0.410 NA
ATOM     15  C   UNL     1      -0.116  15.335 -39.407  0.00  0.00    +0.250 C 
ENDBRANCH   8  15
ENDBRANCH   1  13
BRANCH   5  16
ATOM     16  C   UNL     1       0.546  13.732 -34.073  0.00  0.00    +0.090 A 
ATOM     17  C   UNL     1       1.933  13.682 -34.070  0.00  0.00    +0.040 A 
ATOM     18  C   UNL     1       2.630  13.962 -32.910  0.00  0.00    +0.020 A 
ATOM     19  C   UNL     1       1.947  14.291 -31.754  0.00  0.00    +0.030 A 
ATOM     20  C   UNL     1       0.565  14.341 -31.754  0.00  0.00    +0.020 A 
ATOM     21  C   UNL     1      -0.137  14.068 -32.911  0.00  0.00    +0.030 A 
ENDBRANCH   5  16
BRANCH   3  22
ATOM     22  C   UNL     1      -1.079  10.440 -37.256  0.00  0.00    +0.190 A 
ATOM     23  C   UNL     1      -0.220   9.480 -36.726  0.00  0.00    -0.040 A 
ATOM     24  C   UNL     1      -0.337   8.167 -37.148  0.00  0.00    +0.080 A 
ATOM     25  C   UNL     1      -1.311   7.858 -38.088  0.00  0.00    -0.040 A 
ATOM     26  C   UNL     1      -2.129   8.861 -38.572  0.00  0.00    +0.270 A 
ATOM     27  N   UNL     1      -2.000  10.102 -38.150  0.00  0.00    -0.480 NA
ENDBRANCH   3  22
TORSDOF 4
ENDMDL
MODEL 7
REMARK VINA RESULT:      -7.0     26.836     29.242
REMARK  Name = ZINC000030691797
REMARK  4 active torsions:
REMARK  status: ('A' for Active; 'I' for Inactive)
REMARK    1  A    between atoms: C2_2  and  C3_3
REMARK    2  A    between atoms: C8_8  and  C9_9
REMARK    3  A    between atoms: C11_11  and  C12_12
REMARK    4  A    between atoms: N19_19  and  C20_20
REMARK                            x       y       z     vdW  Elec       q    Type
REMARK                         _______ _______ _______ _____ _____    ______ ____
ROOT
ATOM      1  C   UNL     1      -0.072  12.978 -34.819  0.00  0.00    -0.200 A 
ATOM      2  C   UNL     1      -0.668  13.851 -35.715  0.00  0.00    +0.190 A 
ATOM      3  C   UNL     1      -1.086  13.362 -36.968  0.00  0.00    -0.150 A 
ATOM      4  C   UNL     1      -0.897  12.033 -37.279  0.00  0.00    +0.340 A 
ATOM      5  N   UNL     1      -0.313  11.188 -36.394  0.00  0.00    -0.450 N 
ATOM      6  C   UNL     1       0.104  11.622 -35.191  0.00  0.00    +0.530 A 
ATOM      7  O   UNL     1       0.627  10.842 -34.412  0.00  0.00    -0.510 OA
ENDROOT
BRANCH   1  13
ATOM      8  C   UNL     1      -0.541  13.584 -32.435  0.00  0.00    -0.020 A 
ATOM      9  C   UNL     1      -0.100  14.039 -31.192  0.00  0.00    +0.070 A 
ATOM     10  C   UNL     1       1.228  14.367 -31.009  0.00  0.00    +0.020 A 
ATOM     11  C   UNL     1       2.131  14.247 -32.054  0.00  0.00    +0.040 A 
ATOM     12  C   UNL     1       1.714  13.800 -33.291  0.00  0.00    +0.040 A 
ATOM     13  C   UNL     1       0.379  13.457 -33.495  0.00  0.00    +0.030 A 
BRANCH   8  15
ATOM     14  N   UNL     1      -3.008  12.966 -32.786  0.00  0.00    -0.410 NA
ATOM     15  C   UNL     1      -1.917  13.240 -32.631  0.00  0.00    +0.250 C 
ENDBRANCH   8  15
ENDBRANCH   1  13
BRANCH   5  16
ATOM     16  C   UNL     1      -0.136   9.843 -36.741  0.00  0.00    +0.090 A 
ATOM     17  C   UNL     1      -1.228   8.987 -36.786  0.00  0.00    +0.040 A 
ATOM     18  C   UNL     1      -1.050   7.661 -37.129  0.00  0.00    +0.020 A 
ATOM     19  C   UNL     1       0.214   7.186 -37.425  0.00  0.00    +0.030 A 
ATOM     20  C   UNL     1       1.304   8.037 -37.381  0.00  0.00    +0.020 A 
ATOM     21  C   UNL     1       1.132   9.365 -37.045  0.00  0.00    +0.030 A 
ENDBRANCH   5  16
BRANCH   3  22
ATOM     22  C   UNL     1      -1.727  14.272 -37.948  0.00  0.00    +0.190 A 
ATOM     23  C   UNL     1      -3.043  14.683 -37.751  0.00  0.00    -0.040 A 
ATOM     24  C   UNL     1      -3.628  15.533 -38.673  0.00  0.00    +0.080 A 
ATOM     25  C   UNL     1      -2.875  15.944 -39.766  0.00  0.00    -0.040 A 
ATOM     26  C   UNL     1      -1.574  15.497 -39.898  0.00  0.00    +0.270 A 
ATOM     27  N   UNL     1      -1.040  14.693 -39.003  0.00  0.00    -0.480 NA
ENDBRANCH   3  22
TORSDOF 4
ENDMDL
MODEL 8
REMARK VINA RESULT:      -7.0     29.501     32.075
REMARK  Name = ZINC000030691797
REMARK  4 active torsions:
REMARK  status: ('A' for Active; 'I' for Inactive)
REMARK    1  A    between atoms: C2_2  and  C3_3
REMARK    2  A    between atoms: C8_8  and  C9_9
REMARK    3  A    between atoms: C11_11  and  C12_12
REMARK    4  A    between atoms: N19_19  and  C20_20
REMARK                            x       y       z     vdW  Elec       q    Type
REMARK                         _______ _______ _______ _____ _____    ______ ____
ROOT
ATOM      1  C   UNL     1       0.267  17.124 -31.274  0.00  0.00    -0.200 A 
ATOM      2  C   UNL     1       1.530  17.676 -31.136  0.00  0.00    +0.190 A 
ATOM      3  C   UNL     1       1.920  18.183 -29.881  0.00  0.00    -0.150 A 
ATOM      4  C   UNL     1       1.045  18.121 -28.819  0.00  0.00    +0.340 A 
ATOM      5  N   UNL     1      -0.189  17.577 -28.966  0.00  0.00    -0.450 N 
ATOM      6  C   UNL     1      -0.597  17.090 -30.151  0.00  0.00    +0.530 A 
ATOM      7  O   UNL     1      -1.712  16.606 -30.258  0.00  0.00    -0.510 OA
ENDROOT
BRANCH   1  13
ATOM      8  C   UNL     1       0.077  15.238 -32.909  0.00  0.00    -0.020 A 
ATOM      9  C   UNL     1      -0.345  14.743 -34.144  0.00  0.00    +0.070 A 
ATOM     10  C   UNL     1      -0.999  15.572 -35.032  0.00  0.00    +0.020 A 
ATOM     11  C   UNL     1      -1.241  16.897 -34.707  0.00  0.00    +0.040 A 
ATOM     12  C   UNL     1      -0.830  17.406 -33.491  0.00  0.00    +0.040 A 
ATOM     13  C   UNL     1      -0.175  16.584 -32.577  0.00  0.00    +0.030 A 
BRANCH   8  15
ATOM     14  N   UNL     1       1.291  13.702 -31.248  0.00  0.00    -0.410 NA
ATOM     15  C   UNL     1       0.754  14.382 -31.982  0.00  0.00    +0.250 C 
ENDBRANCH   8  15
ENDBRANCH   1  13
BRANCH   5  16
ATOM     16  C   UNL     1      -1.054  17.529 -27.866  0.00  0.00    +0.090 A 
ATOM     17  C   UNL     1      -1.277  16.326 -27.208  0.00  0.00    +0.040 A 
ATOM     18  C   UNL     1      -2.131  16.282 -26.124  0.00  0.00    +0.020 A 
ATOM     19  C   UNL     1      -2.766  17.432 -25.694  0.00  0.00    +0.030 A 
ATOM     20  C   UNL     1      -2.546  18.632 -26.348  0.00  0.00    +0.020 A 
ATOM     21  C   UNL     1      -1.689  18.684 -27.428  0.00  0.00    +0.030 A 
ENDBRANCH   5  16
BRANCH   3  22
ATOM     22  C   UNL     1       3.266  18.780 -29.703  0.00  0.00    +0.190 A 
ATOM     23  C   UNL     1       4.128  18.265 -28.738  0.00  0.00    -0.040 A 
ATOM     24  C   UNL     1       5.381  18.833 -28.584  0.00  0.00    +0.080 A 
ATOM     25  C   UNL     1       5.730  19.900 -29.401  0.00  0.00    -0.040 A 
ATOM     26  C   UNL     1       4.824  20.360 -30.337  0.00  0.00    +0.270 A 
ATOM     27  N   UNL     1       3.640  19.799 -30.467  0.00  0.00    -0.480 NA
ENDBRANCH   3  22
TORSDOF 4
ENDMDL
MODEL 9
REMARK VINA RESULT:      -6.9     29.371     32.259
REMARK  Name = ZINC000030691797
REMARK  4 active torsions:
REMARK  status: ('A' for Active; 'I' for Inactive)
REMARK    1  A    between atoms: C2_2  and  C3_3
REMARK    2  A    between atoms: C8_8  and  C9_9
REMARK    3  A    between atoms: C11_11  and  C12_12
REMARK    4  A    between atoms: N19_19  and  C20_20
REMARK                            x       y       z     vdW  Elec       q    Type
REMARK                         _______ _______ _______ _____ _____    ______ ____
ROOT
ATOM      1  C   UNL     1      -0.363  17.620 -28.733  0.00  0.00    -0.200 A 
ATOM      2  C   UNL     1      -0.444  16.392 -29.370  0.00  0.00    +0.190 A 
ATOM      3  C   UNL     1       0.682  15.910 -30.066  0.00  0.00    -0.150 A 
ATOM      4  C   UNL     1       1.835  16.662 -30.101  0.00  0.00    +0.340 A 
ATOM      5  N   UNL     1       1.903  17.862 -29.473  0.00  0.00    -0.450 N 
ATOM      6  C   UNL     1       0.845  18.356 -28.805  0.00  0.00    +0.530 A 
ATOM      7  O   UNL     1       0.930  19.439 -28.249  0.00  0.00    -0.510 OA
ENDROOT
BRANCH   1  13
ATOM      8  C   UNL     1      -2.417  19.048 -28.622  0.00  0.00    -0.020 A 
ATOM      9  C   UNL     1      -3.508  19.547 -27.910  0.00  0.00    +0.070 A 
ATOM     10  C   UNL     1      -3.705  19.170 -26.598  0.00  0.00    +0.020 A 
ATOM     11  C   UNL     1      -2.825  18.298 -25.978  0.00  0.00    +0.040 A 
ATOM     12  C   UNL     1      -1.739  17.795 -26.665  0.00  0.00    +0.040 A 
ATOM     13  C   UNL     1      -1.525  18.157 -27.994  0.00  0.00    +0.030 A 
BRANCH   8  15
ATOM     14  N   UNL     1      -2.043  19.738 -31.067  0.00  0.00    -0.410 NA
ATOM     15  C   UNL     1      -2.207  19.434 -29.985  0.00  0.00    +0.250 C 
ENDBRANCH   8  15
ENDBRANCH   1  13
BRANCH   5  16
ATOM     16  C   UNL     1       3.091  18.601 -29.528  0.00  0.00    +0.090 A 
ATOM     17  C   UNL     1       4.120  18.331 -28.636  0.00  0.00    +0.040 A 
ATOM     18  C   UNL     1       5.290  19.062 -28.692  0.00  0.00    +0.020 A 
ATOM     19  C   UNL     1       5.437  20.063 -29.635  0.00  0.00    +0.030 A 
ATOM     20  C   UNL     1       4.413  20.335 -30.524  0.00  0.00    +0.020 A 
ATOM     21  C   UNL     1       3.243  19.603 -30.477  0.00  0.00    +0.030 A 
ENDBRANCH   5  16
BRANCH   3  22
ATOM     22  C   UNL     1       0.626  14.599 -30.758  0.00  0.00    +0.190 A 
ATOM     23  C   UNL     1       1.696  14.189 -31.549  0.00  0.00    -0.040 A 
ATOM     24  C   UNL     1       1.629  12.963 -32.187  0.00  0.00    +0.080 A 
ATOM     25  C   UNL     1       0.491  12.187 -32.015  0.00  0.00    -0.040 A 
ATOM     26  C   UNL     1      -0.534  12.657 -31.216  0.00  0.00    +0.270 A 
ATOM     27  N   UNL     1      -0.443  13.825 -30.615  0.00  0.00    -0.480 NA
ENDBRANCH   3  22
TORSDOF 4
ENDMDL
