REMARK  Name = ZINC000030691797
REMARK  4 active torsions:
REMARK  status: ('A' for Active; 'I' for Inactive)
REMARK    1  A    between atoms: C2_2  and  C3_3
REMARK    2  A    between atoms: C8_8  and  C9_9
REMARK    3  A    between atoms: C11_11  and  C12_12
REMARK    4  A    between atoms: N19_19  and  C20_20
REMARK                            x       y       z     vdW  Elec       q    Type
REMARK                         _______ _______ _______ _____ _____    ______ ____
ROOT
ATOM      1  C   UNL     1       2.318   0.755  -0.097  0.00  0.00    -0.200 A 
ATOM      2  C   UNL     1       2.970   0.832   1.123  0.00  0.00    +0.190 A 
ATOM      3  C   UNL     1       4.378   0.857   1.143  0.00  0.00    -0.150 A 
ATOM      4  C   UNL     1       5.078   0.806  -0.042  0.00  0.00    +0.340 A 
ATOM      5  N   UNL     1       4.429   0.732  -1.230  0.00  0.00    -0.450 N 
ATOM      6  C   UNL     1       3.085   0.699  -1.287  0.00  0.00    +0.530 A 
ATOM      7  O   UNL     1       2.524   0.631  -2.368  0.00  0.00    -0.510 OA
ENDROOT
BRANCH   1  13
ATOM      8  C   UNL     1       0.140  -0.447   0.187  0.00  0.00    -0.020 A 
ATOM      9  C   UNL     1      -1.254  -0.459   0.126  0.00  0.00    +0.070 A 
ATOM     10  C   UNL     1      -1.936   0.672  -0.273  0.00  0.00    +0.020 A 
ATOM     11  C   UNL     1      -1.246   1.824  -0.615  0.00  0.00    +0.040 A 
ATOM     12  C   UNL     1       0.133   1.855  -0.562  0.00  0.00    +0.040 A 
ATOM     13  C   UNL     1       0.841   0.726  -0.155  0.00  0.00    +0.030 A 
BRANCH   8  15
ATOM     14  N   UNL     1       1.419  -2.546   0.930  0.00  0.00    -0.410 NA
ATOM     15  C   UNL     1       0.854  -1.617   0.602  0.00  0.00    +0.250 C 
ENDBRANCH   8  15
ENDBRANCH   1  13
BRANCH   5  16
ATOM     16  C   UNL     1       5.170   0.682  -2.417  0.00  0.00    +0.090 A 
ATOM     17  C   UNL     1       5.516   1.857  -3.071  0.00  0.00    +0.040 A 
ATOM     18  C   UNL     1       6.247   1.804  -4.242  0.00  0.00    +0.020 A 
ATOM     19  C   UNL     1       6.633   0.583  -4.763  0.00  0.00    +0.030 A 
ATOM     20  C   UNL     1       6.289  -0.589  -4.114  0.00  0.00    +0.020 A 
ATOM     21  C   UNL     1       5.564  -0.543  -2.940  0.00  0.00    +0.030 A 
ENDBRANCH   5  16
BRANCH   3  22
ATOM     22  C   UNL     1       5.104   0.939   2.434  0.00  0.00    +0.190 A 
ATOM     23  C   UNL     1       6.497   0.969   2.443  0.00  0.00    -0.040 A 
ATOM     24  C   UNL     1       7.160   1.046   3.655  0.00  0.00    +0.080 A 
ATOM     25  C   UNL     1       6.407   1.089   4.821  0.00  0.00    -0.040 A 
ATOM     26  C   UNL     1       5.028   1.055   4.738  0.00  0.00    +0.270 A 
ATOM     27  N   UNL     1       4.421   0.987   3.571  0.00  0.00    -0.480 NA
ENDBRANCH   3  22
TORSDOF 4
