@<TRIPOS>MOLECULE
ZINC000030691797
  42   45    0    0    0
SMALL
USER_CHARGES
NO_NAME
@<TRIPOS>ATOM
    1 N1        1.4194    -2.5460     0.9300 N.1    1 <0>      -0.4100
    2 C2        0.8535    -1.6174     0.6015 C.1    1 <0>       0.2500
    3 C3        0.1402    -0.4468     0.1874 C.ar   1 <0>      -0.0200
    4 C4       -1.2540    -0.4585     0.1262 C.ar   1 <0>      -0.0700
    5 C5       -1.9358     0.6721    -0.2729 C.ar   1 <0>      -0.1200
    6 C6       -1.2458     1.8237    -0.6154 C.ar   1 <0>      -0.0900
    7 C7        0.1327     1.8554    -0.5619 C.ar   1 <0>      -0.0900
    8 C8        0.8405     0.7262    -0.1554 C.ar   1 <0>       0.0300
    9 C9        2.3179     0.7551    -0.0965 C.2    1 <0>      -0.2000
   10 C10       2.9698     0.8318     1.1235 C.2    1 <0>       0.0400
   11 C11       4.3782     0.8574     1.1431 C.2    1 <0>      -0.1500
   12 C12       5.1038     0.9387     2.4339 C.ar   1 <0>       0.1900
   13 C13       6.4968     0.9693     2.4429 C.ar   1 <0>      -0.1700
   14 C14       7.1599     1.0457     3.6552 C.ar   1 <0>      -0.0600
   15 C15       6.4074     1.0891     4.8205 C.ar   1 <0>      -0.1800
   16 C16       5.0278     1.0550     4.7384 C.ar   1 <0>       0.1100
   17 N17       4.4210     0.9872     3.5708 N.ar   1 <0>      -0.4800
   18 C18       5.0783     0.8063    -0.0416 C.2    1 <0>       0.1700
   19 N19       4.4287     0.7318    -1.2298 N.am   1 <0>      -0.4500
   20 C20       5.1695     0.6816    -2.4169 C.ar   1 <0>       0.0900
   21 C21       5.5162     1.8566    -3.0709 C.ar   1 <0>      -0.0900
   22 C22       6.2469     1.8038    -4.2417 C.ar   1 <0>      -0.1100
   23 C23       6.6329     0.5825    -4.7631 C.ar   1 <0>      -0.1000
   24 C24       6.2888    -0.5893    -4.1145 C.ar   1 <0>      -0.1100
   25 C25       5.5639    -0.5430    -2.9398 C.ar   1 <0>      -0.1000
   26 C26       3.0847     0.6988    -1.2871 C.2    1 <0>       0.5300
   27 O27       2.5242     0.6313    -2.3679 O.2    1 <0>      -0.5100
   28 H28      -1.7989    -1.3526     0.3910 H      1 <0>       0.1400
   29 H29      -3.0147     0.6595    -0.3190 H      1 <0>       0.1400
   30 H30      -1.7907     2.7026    -0.9267 H      1 <0>       0.1300
   31 H31       0.6628     2.7571    -0.8310 H      1 <0>       0.1300
   32 H32       2.4073     0.8716     2.0447 H      1 <0>       0.1500
   33 H33       7.0513     0.9336     1.5168 H      1 <0>       0.1300
   34 H34       8.2390     1.0707     3.6937 H      1 <0>       0.1400
   35 H35       6.8949     1.1485     5.7824 H      1 <0>       0.1400
   36 H36       4.4393     1.0882     5.6434 H      1 <0>       0.1600
   37 H37       6.1580     0.8260    -0.0243 H      1 <0>       0.1700
   38 H38       5.2145     2.8107    -2.6646 H      1 <0>       0.1300
   39 H39       6.5169     2.7172    -4.7508 H      1 <0>       0.1300
   40 H40       7.2039     0.5438    -5.6789 H      1 <0>       0.1300
   41 H41       6.5911    -1.5416    -4.5246 H      1 <0>       0.1300
   42 H42       5.2955    -1.4585    -2.4337 H      1 <0>       0.1300
@<TRIPOS>BOND
   1    1    2 3
   2    2    3 1
   3    3    8 ar
   4    3    4 ar
   5    4    5 ar
   6    4   28 1
   7    5    6 ar
   8    5   29 1
   9    6    7 ar
  10    6   30 1
  11    7    8 ar
  12    7   31 1
  13    8    9 1
  14    9   26 1
  15    9   10 2
  16   10   11 1
  17   10   32 1
  18   11   12 1
  19   11   18 2
  20   12   17 ar
  21   12   13 ar
  22   13   14 ar
  23   13   33 1
  24   14   15 ar
  25   14   34 1
  26   15   16 ar
  27   15   35 1
  28   16   17 ar
  29   16   36 1
  30   18   19 1
  31   18   37 1
  32   19   20 1
  33   19   26 am
  34   20   25 ar
  35   20   21 ar
  36   21   22 ar
  37   21   38 1
  38   22   23 ar
  39   22   39 1
  40   23   24 ar
  41   23   40 1
  42   24   25 ar
  43   24   41 1
  44   25   42 1
  45   26   27 2
