REMARK  Name = ZINC000000538159
REMARK  6 active torsions:
REMARK  status: ('A' for Active; 'I' for Inactive)
REMARK    1  A    between atoms: C2_2  and  C3_3
REMARK    2  A    between atoms: N14_14  and  C15_15
REMARK    3  A    between atoms: C15_15  and  C16_16
REMARK    4  A    between atoms: C16_16  and  C17_17
REMARK    5  A    between atoms: C17_17  and  N18_18
REMARK    6  A    between atoms: C22_22  and  O23_23
REMARK                            x       y       z     vdW  Elec       q    Type
REMARK                         _______ _______ _______ _____ _____    ______ ____
ROOT
ATOM      1  C   UNL     1       3.900   7.479  -0.741  0.00  0.00    +0.010 A 
ATOM      2  C   UNL     1       3.013   7.987  -1.694  0.00  0.00    +0.070 A 
ATOM      3  C   UNL     1       1.919   7.243  -2.078  0.00  0.00    +0.090 A 
ATOM      4  C   UNL     1       1.691   5.987  -1.523  0.00  0.00    -0.120 A 
ATOM      5  S   UNL     1       0.277   5.069  -2.029  0.00  0.00    +0.050 S 
ATOM      6  C   UNL     1       0.096   3.862  -0.760  0.00  0.00    -0.160 A 
ATOM      7  C   UNL     1      -1.113   3.194  -0.624  0.00  0.00    +0.090 A 
ATOM      8  C   UNL     1      -1.276   2.243   0.366  0.00  0.00    +0.010 A 
ATOM      9  C   UNL     1      -0.232   1.956   1.225  0.00  0.00    +0.050 A 
ATOM     10  C   UNL     1       0.975   2.616   1.096  0.00  0.00    -0.040 A 
ATOM     11  C   UNL     1       1.150   3.574   0.102  0.00  0.00    +0.190 A 
ATOM     12  N   UNL     1       2.382   4.213  -0.003  0.00  0.00    -0.560 N 
ATOM     13  C   UNL     1       2.573   5.469  -0.575  0.00  0.00    +0.190 A 
ATOM     14  C   UNL     1       3.676   6.215  -0.188  0.00  0.00    +0.010 A 
ENDROOT
BRANCH   1  16
ATOM     15  N   UNL     1       5.940   8.859  -0.015  0.00  0.00    -0.400 NA
ATOM     16  C   UNL     1       5.037   8.249  -0.336  0.00  0.00    +0.240 C 
ENDBRANCH   1  16
BRANCH  12  17
ATOM     17  C   UNL     1       3.559   3.516   0.523  0.00  0.00    +0.320 C 
BRANCH  17  18
ATOM     18  C   UNL     1       3.758   3.891   1.994  0.00  0.00    +0.010 C 
BRANCH  18  19
ATOM     19  C   UNL     1       4.987   3.163   2.543  0.00  0.00    +0.270 C 
BRANCH  19  20
ATOM     20  N   UNL     1       5.178   3.523   3.954  0.00  0.00    -0.390 N 
ATOM     21  C   UNL     1       6.425   2.923   4.446  0.00  0.00    +0.270 C 
ATOM     22  C   UNL     1       6.670   3.361   5.892  0.00  0.00    +0.080 C 
ATOM     23  C   UNL     1       5.500   2.898   6.765  0.00  0.00    +0.170 C 
ATOM     24  C   UNL     1       4.197   3.469   6.199  0.00  0.00    +0.040 C 
ATOM     25  C   UNL     1       4.044   3.026   4.742  0.00  0.00    +0.250 C 
ATOM     26  H   UNL     1       5.232   4.527   4.041  0.00  0.00    +0.420 HD
BRANCH  23  27
ATOM     27  O   UNL     1       5.687   3.367   8.102  0.00  0.00    -0.550 OA
ATOM     28  H   UNL     1       4.981   3.110   8.711  0.00  0.00    +0.390 HD
ENDBRANCH  23  27
ENDBRANCH  19  20
ENDBRANCH  18  19
ENDBRANCH  17  18
ENDBRANCH  12  17
TORSDOF 6
