@<TRIPOS>MOLECULE
ZINC000000538159
50    53    1     0     0
SMALL
USER_CHARGES
@<TRIPOS>ATOM
1      N1      5.9397    8.8593   -0.0148 N.1      1 ZINC000000538159   -0.4000
2      C2      5.0373    8.2487   -0.3360 C.1      1 ZINC000000538159    0.2400
3      C3      3.8996    7.4790   -0.7410 C.ar     1 ZINC000000538159    0.0100
4      C4      3.0132    7.9875   -1.6937 C.ar     1 ZINC000000538159   -0.0800
5      C5      1.9195    7.2433   -2.0775 C.ar     1 ZINC000000538159   -0.0600
6      C6      1.6908    5.9875   -1.5226 C.ar     1 ZINC000000538159   -0.1200
7      S7      0.2766    5.0687   -2.0290 S.3      1 ZINC000000538159    0.0500
8      C8      0.0964    3.8618   -0.7604 C.ar     1 ZINC000000538159   -0.1600
9      C9     -1.1132    3.1938   -0.6242 C.ar     1 ZINC000000538159   -0.0500
10     C10    -1.2756    2.2430    0.3664 C.ar     1 ZINC000000538159   -0.1300
11     C11    -0.2319    1.9557    1.2251 C.ar     1 ZINC000000538159   -0.0800
12     C12     0.9754    2.6160    1.0958 C.ar     1 ZINC000000538159   -0.1600
13     C13     1.1497    3.5737    0.1023 C.ar     1 ZINC000000538159    0.1900
14     N14     2.3825    4.2127   -0.0028 N.pl3    1 ZINC000000538159   -0.5600
15     C15     3.5591    3.5164    0.5233 C.3      1 ZINC000000538159    0.1200
16     C16     3.7582    3.8906    1.9935 C.3      1 ZINC000000538159   -0.1900
17     C17     4.9870    3.1634    2.5430 C.3      1 ZINC000000538159   -0.0100
18     N18     5.1781    3.5226    3.9545 N.4      1 ZINC000000538159   -0.3900
19     H19     5.2321    4.5265    4.0406 H        1 ZINC000000538159    0.4200
20     C20     6.4245    2.9231    4.4460 C.3      1 ZINC000000538159    0.0000
21     C21     6.6699    3.3605    5.8917 C.3      1 ZINC000000538159   -0.1400
22     C22     5.4999    2.8977    6.7648 C.3      1 ZINC000000538159    0.1000
23     O23     5.6866    3.3668    8.1016 O.3      1 ZINC000000538159   -0.5500
24     C24     4.1965    3.4687    6.1990 C.3      1 ZINC000000538159   -0.1800
25     C25     4.0436    3.0258    4.7422 C.3      1 ZINC000000538159   -0.0100
26     C26     2.5732    5.4691   -0.5746 C.ar     1 ZINC000000538159    0.1900
27     C27     3.6762    6.2146   -0.1884 C.ar     1 ZINC000000538159   -0.1200
28     H28     3.1848    8.9614   -2.1277 H        1 ZINC000000538159    0.1500
29     H29     1.2345    7.6371   -2.8138 H        1 ZINC000000538159    0.1500
30     H30    -1.9301    3.4180   -1.2941 H        1 ZINC000000538159    0.1400
31     H31    -2.2179    1.7253    0.4692 H        1 ZINC000000538159    0.1400
32     H32    -0.3597    1.2133    1.9989 H        1 ZINC000000538159    0.1300
33     H33     1.7874    2.3878    1.7703 H        1 ZINC000000538159    0.1200
34     H34     3.4119    2.4397    0.4392 H        1 ZINC000000538159    0.1000
35     H35     4.4400    3.8084   -0.0484 H        1 ZINC000000538159    0.1000
36     H36     3.9054    4.9673    2.0776 H        1 ZINC000000538159    0.1000
37     H37     2.8773    3.5985    2.5652 H        1 ZINC000000538159    0.1000
38     H38     4.8398    2.0866    2.4588 H        1 ZINC000000538159    0.1400
39     H39     5.8679    3.4554    1.9713 H        1 ZINC000000538159    0.1400
40     H40     6.3459    1.8368    4.4039 H        1 ZINC000000538159    0.1300
41     H41     7.2557    3.2509    3.8217 H        1 ZINC000000538159    0.1400
42     H42     7.5948    2.9129    6.2554 H        1 ZINC000000538159    0.1200
43     H43     6.7488    4.4468    5.9349 H        1 ZINC000000538159    0.1000
44     H44     5.4529    1.8087    6.7639 H        1 ZINC000000538159    0.0700
45     H45     4.9809    3.1098    8.7108 H        1 ZINC000000538159    0.3900
46     H46     3.3534    3.0984    6.7824 H        1 ZINC000000538159    0.1200
47     H47     4.2241    4.5572    6.2486 H        1 ZINC000000538159    0.1000
48     H48     3.1166    3.4299    4.3354 H        1 ZINC000000538159    0.1300
49     H49     4.0159    1.9371    4.6949 H        1 ZINC000000538159    0.1300
50     H50     4.3631    5.8189    0.5451 H        1 ZINC000000538159    0.1300
@<TRIPOS>BOND
1     1     2     3
2     2     3     1
3     3     27    ar
4     3     4     ar
5     4     5     ar
6     4     28    1
7     5     6     ar
8     5     29    1
9     6     26    ar
10    6     7     1
11    7     8     1
12    8     13    ar
13    8     9     ar
14    9     10    ar
15    9     30    1
16    10    11    ar
17    10    31    1
18    11    12    ar
19    11    32    1
20    12    13    ar
21    12    33    1
22    13    14    1
23    14    15    1
24    14    26    1
25    15    16    1
26    15    34    1
27    15    35    1
28    16    17    1
29    16    36    1
30    16    37    1
31    17    18    1
32    17    38    1
33    17    39    1
34    18    19    1
35    18    25    1
36    18    20    1
37    20    21    1
38    20    40    1
39    20    41    1
40    21    22    1
41    21    42    1
42    21    43    1
43    22    23    1
44    22    24    1
45    22    44    1
46    23    45    1
47    24    25    1
48    24    46    1
49    24    47    1
50    25    48    1
51    25    49    1
52    26    27    ar
53    27    50    1
@<TRIPOS>SUBSTRUCTURE
1   ZINC000000538159 1     RESIDUE    1   A     ZIN   1
