MODEL 1
REMARK VINA RESULT:      -6.7      0.000      0.000
REMARK  Name = ZINC000000538183
REMARK  5 active torsions:
REMARK  status: ('A' for Active; 'I' for Inactive)
REMARK    1  A    between atoms: C2_2  and  C4_4
REMARK    2  A    between atoms: N7_7  and  C9_9
REMARK    3  A    between atoms: C9_9  and  C10_10
REMARK    4  A    between atoms: C10_10  and  C11_11
REMARK    5  A    between atoms: C11_11  and  N12_12
REMARK                            x       y       z     vdW  Elec       q    Type
REMARK                         _______ _______ _______ _____ _____    ______ ____
ROOT
ATOM      1  C   UNL     1      -1.774  13.045 -36.201  0.00  0.00    +0.320 C 
ENDROOT
BRANCH   1   2
ATOM      2  N   UNL     1      -1.723  13.333 -37.636  0.00  0.00    -0.560 N 
ATOM      3  C   UNL     1      -1.896  14.655 -38.039  0.00  0.00    +0.180 A 
ATOM      4  C   UNL     1      -2.592  15.523 -37.204  0.00  0.00    -0.040 A 
ATOM      5  C   UNL     1      -2.780  16.842 -37.570  0.00  0.00    +0.050 A 
ATOM      6  C   UNL     1      -2.277  17.309 -38.769  0.00  0.00    +0.010 A 
ATOM      7  C   UNL     1      -1.585  16.454 -39.608  0.00  0.00    +0.090 A 
ATOM      8  C   UNL     1      -1.393  15.127 -39.248  0.00  0.00    -0.150 A 
ATOM      9  S   UNL     1      -0.515  14.057 -40.336  0.00  0.00    +0.040 S 
ATOM     10  C   UNL     1      -0.951  12.449 -39.769  0.00  0.00    -0.150 A 
ATOM     11  C   UNL     1      -0.740  11.355 -40.597  0.00  0.00    +0.110 A 
ATOM     12  C   UNL     1      -1.078  10.083 -40.173  0.00  0.00    +0.030 A 
ATOM     13  C   UNL     1      -1.629   9.899 -38.917  0.00  0.00    +0.000 A 
ATOM     14  C   UNL     1      -1.842  10.983 -38.086  0.00  0.00    -0.030 A 
ATOM     15 CL   UNL     1      -2.054   8.302 -38.385  0.00  0.00    -0.050 Cl
ATOM     16  C   UNL     1      -1.499  12.267 -38.504  0.00  0.00    +0.200 A 
ENDBRANCH   1   2
BRANCH   1  17
ATOM     17  C   UNL     1      -0.377  13.200 -35.599  0.00  0.00    +0.010 C 
BRANCH  17  18
ATOM     18  C   UNL     1      -0.056  11.978 -34.734  0.00  0.00    +0.270 C 
BRANCH  18  22
ATOM     19  C   UNL     1       0.492  14.322 -31.218  0.00  0.00    +0.000 C 
ATOM     20  C   UNL     1       1.681  14.074 -32.150  0.00  0.00    +0.080 C 
ATOM     21  C   UNL     1       1.164  13.653 -33.527  0.00  0.00    +0.270 C 
ATOM     22  N   UNL     1       0.375  12.421 -33.401  0.00  0.00    -0.380 N 
ATOM     23  C   UNL     1      -0.807  12.669 -32.567  0.00  0.00    +0.260 C 
ATOM     24  H   UNL     1       0.940  11.702 -32.975  0.00  0.00    +0.430 HD
ATOM     25  C   UNL     1      -0.365  13.054 -31.152  0.00  0.00    +0.090 C 
BRANCH  19  29
ATOM     26  N   UNL     1       2.221  15.199 -29.682  0.00  0.00    -0.850 N 
ATOM     27  H   UNL     1       2.781  15.363 -30.457  0.00  0.00    +0.400 HD
ATOM     28  H   UNL     1       2.544  15.417 -28.795  0.00  0.00    +0.410 HD
ATOM     29  C   UNL     1       0.994  14.661 -29.839  0.00  0.00    +0.520 C 
ATOM     30  O   UNL     1       0.296  14.451 -28.869  0.00  0.00    -0.530 OA
ENDBRANCH  19  29
ENDBRANCH  18  22
ENDBRANCH  17  18
ENDBRANCH   1  17
TORSDOF 5
ENDMDL
MODEL 2
REMARK VINA RESULT:      -6.7      2.784      4.891
REMARK  Name = ZINC000000538183
REMARK  5 active torsions:
REMARK  status: ('A' for Active; 'I' for Inactive)
REMARK    1  A    between atoms: C2_2  and  C4_4
REMARK    2  A    between atoms: N7_7  and  C9_9
REMARK    3  A    between atoms: C9_9  and  C10_10
REMARK    4  A    between atoms: C10_10  and  C11_11
REMARK    5  A    between atoms: C11_11  and  N12_12
REMARK                            x       y       z     vdW  Elec       q    Type
REMARK                         _______ _______ _______ _____ _____    ______ ____
ROOT
ATOM      1  C   UNL     1      -1.077  12.349 -38.874  0.00  0.00    +0.320 C 
ENDROOT
BRANCH   1   2
ATOM      2  N   UNL     1      -1.616  11.085 -39.380  0.00  0.00    -0.560 N 
ATOM      3  C   UNL     1      -1.368   9.931 -38.639  0.00  0.00    +0.180 A 
ATOM      4  C   UNL     1      -0.260   9.901 -37.800  0.00  0.00    -0.040 A 
ATOM      5  C   UNL     1       0.015   8.775 -37.047  0.00  0.00    +0.050 A 
ATOM      6  C   UNL     1      -0.810   7.669 -37.124  0.00  0.00    +0.010 A 
ATOM      7  C   UNL     1      -1.914   7.688 -37.957  0.00  0.00    +0.090 A 
ATOM      8  C   UNL     1      -2.196   8.815 -38.718  0.00  0.00    -0.150 A 
ATOM      9  S   UNL     1      -3.603   8.812 -39.776  0.00  0.00    +0.040 S 
ATOM     10  C   UNL     1      -3.290  10.147 -40.878  0.00  0.00    -0.150 A 
ATOM     11  C   UNL     1      -3.998  10.225 -42.070  0.00  0.00    +0.110 A 
ATOM     12  C   UNL     1      -3.765  11.265 -42.952  0.00  0.00    +0.030 A 
ATOM     13  C   UNL     1      -2.823  12.230 -42.647  0.00  0.00    +0.000 A 
ATOM     14  C   UNL     1      -2.114  12.159 -41.462  0.00  0.00    -0.030 A 
ATOM     15 CL   UNL     1      -2.531  13.534 -43.755  0.00  0.00    -0.050 Cl
ATOM     16  C   UNL     1      -2.346  11.119 -40.565  0.00  0.00    +0.200 A 
ENDBRANCH   1   2
BRANCH   1  17
ATOM     17  C   UNL     1      -1.925  12.830 -37.695  0.00  0.00    +0.010 C 
BRANCH  17  18
ATOM     18  C   UNL     1      -1.288  14.083 -37.087  0.00  0.00    +0.270 C 
BRANCH  18  22
ATOM     19  C   UNL     1      -0.498  12.856 -33.084  0.00  0.00    +0.000 C 
ATOM     20  C   UNL     1      -0.227  14.306 -33.495  0.00  0.00    +0.080 C 
ATOM     21  C   UNL     1      -1.012  14.625 -34.768  0.00  0.00    +0.270 C 
ATOM     22  N   UNL     1      -0.588  13.723 -35.846  0.00  0.00    -0.380 N 
ATOM     23  C   UNL     1      -0.910  12.336 -35.491  0.00  0.00    +0.260 C 
ATOM     24  H   UNL     1       0.407  13.811 -35.986  0.00  0.00    +0.430 HD
ATOM     25  C   UNL     1      -0.121  11.929 -34.244  0.00  0.00    +0.090 C 
BRANCH  19  29
ATOM     26  N   UNL     1       0.975  11.327 -31.814  0.00  0.00    -0.850 N 
ATOM     27  H   UNL     1       0.898  10.696 -32.547  0.00  0.00    +0.400 HD
ATOM     28  H   UNL     1       1.509  11.105 -31.036  0.00  0.00    +0.410 HD
ATOM     29  C   UNL     1       0.333  12.511 -31.875  0.00  0.00    +0.520 C 
ATOM     30  O   UNL     1       0.424  13.298 -30.956  0.00  0.00    -0.530 OA
ENDBRANCH  19  29
ENDBRANCH  18  22
ENDBRANCH  17  18
ENDBRANCH   1  17
TORSDOF 5
ENDMDL
MODEL 3
REMARK VINA RESULT:      -6.6     16.757     18.994
REMARK  Name = ZINC000000538183
REMARK  5 active torsions:
REMARK  status: ('A' for Active; 'I' for Inactive)
REMARK    1  A    between atoms: C2_2  and  C4_4
REMARK    2  A    between atoms: N7_7  and  C9_9
REMARK    3  A    between atoms: C9_9  and  C10_10
REMARK    4  A    between atoms: C10_10  and  C11_11
REMARK    5  A    between atoms: C11_11  and  N12_12
REMARK                            x       y       z     vdW  Elec       q    Type
REMARK                         _______ _______ _______ _____ _____    ______ ____
ROOT
ATOM      1  C   UNL     1       4.337  -4.752 -36.178  0.00  0.00    +0.320 C 
ENDROOT
BRANCH   1   2
ATOM      2  N   UNL     1       3.540  -4.065 -35.159  0.00  0.00    -0.560 N 
ATOM      3  C   UNL     1       4.126  -3.850 -33.914  0.00  0.00    +0.180 A 
ATOM      4  C   UNL     1       5.160  -4.686 -33.508  0.00  0.00    -0.040 A 
ATOM      5  C   UNL     1       5.767  -4.499 -32.280  0.00  0.00    +0.050 A 
ATOM      6  C   UNL     1       5.350  -3.478 -31.447  0.00  0.00    +0.010 A 
ATOM      7  C   UNL     1       4.321  -2.642 -31.841  0.00  0.00    +0.090 A 
ATOM      8  C   UNL     1       3.705  -2.824 -33.072  0.00  0.00    -0.150 A 
ATOM      9  S   UNL     1       2.393  -1.751 -33.547  0.00  0.00    +0.040 S 
ATOM     10  C   UNL     1       1.601  -2.626 -34.853  0.00  0.00    -0.150 A 
ATOM     11  C   UNL     1       0.317  -2.262 -35.234  0.00  0.00    +0.110 A 
ATOM     12  C   UNL     1      -0.325  -2.938 -36.256  0.00  0.00    +0.030 A 
ATOM     13  C   UNL     1       0.315  -3.981 -36.901  0.00  0.00    +0.000 A 
ATOM     14  C   UNL     1       1.594  -4.348 -36.527  0.00  0.00    -0.030 A 
ATOM     15 CL   UNL     1      -0.492  -4.829 -38.183  0.00  0.00    -0.050 Cl
ATOM     16  C   UNL     1       2.250  -3.670 -35.503  0.00  0.00    +0.200 A 
ENDBRANCH   1   2
BRANCH   1  17
ATOM     17  C   UNL     1       5.074  -3.717 -37.031  0.00  0.00    +0.010 C 
BRANCH  17  18
ATOM     18  C   UNL     1       6.435  -4.279 -37.451  0.00  0.00    +0.270 C 
BRANCH  18  22
ATOM     19  C   UNL     1       9.770  -4.001 -34.814  0.00  0.00    +0.000 C 
ATOM     20  C   UNL     1       9.368  -5.367 -35.378  0.00  0.00    +0.080 C 
ATOM     21  C   UNL     1       8.504  -5.163 -36.624  0.00  0.00    +0.270 C 
ATOM     22  N   UNL     1       7.298  -4.406 -36.269  0.00  0.00    -0.380 N 
ATOM     23  C   UNL     1       7.671  -3.069 -35.794  0.00  0.00    +0.260 C 
ATOM     24  H   UNL     1       6.798  -4.893 -35.540  0.00  0.00    +0.430 HD
ATOM     25  C   UNL     1       8.504  -3.191 -34.516  0.00  0.00    +0.090 C 
BRANCH  19  29
ATOM     26  N   UNL     1      11.898  -4.310 -33.591  0.00  0.00    -0.850 N 
ATOM     27  H   UNL     1      12.357  -4.277 -34.446  0.00  0.00    +0.400 HD
ATOM     28  H   UNL     1      12.403  -4.434 -32.773  0.00  0.00    +0.410 HD
ATOM     29  C   UNL     1      10.556  -4.192 -33.542  0.00  0.00    +0.520 C 
ATOM     30  O   UNL     1       9.981  -4.240 -32.475  0.00  0.00    -0.530 OA
ENDBRANCH  19  29
ENDBRANCH  18  22
ENDBRANCH  17  18
ENDBRANCH   1  17
TORSDOF 5
ENDMDL
MODEL 4
REMARK VINA RESULT:      -6.5      2.109      3.014
REMARK  Name = ZINC000000538183
REMARK  5 active torsions:
REMARK  status: ('A' for Active; 'I' for Inactive)
REMARK    1  A    between atoms: C2_2  and  C4_4
REMARK    2  A    between atoms: N7_7  and  C9_9
REMARK    3  A    between atoms: C9_9  and  C10_10
REMARK    4  A    between atoms: C10_10  and  C11_11
REMARK    5  A    between atoms: C11_11  and  N12_12
REMARK                            x       y       z     vdW  Elec       q    Type
REMARK                         _______ _______ _______ _____ _____    ______ ____
ROOT
ATOM      1  C   UNL     1      -0.490  12.182 -34.482  0.00  0.00    +0.320 C 
ENDROOT
BRANCH   1   2
ATOM      2  N   UNL     1      -1.280  13.064 -35.345  0.00  0.00    -0.560 N 
ATOM      3  C   UNL     1      -1.971  14.112 -34.742  0.00  0.00    +0.180 A 
ATOM      4  C   UNL     1      -2.315  14.002 -33.400  0.00  0.00    -0.040 A 
ATOM      5  C   UNL     1      -2.998  15.025 -32.768  0.00  0.00    +0.050 A 
ATOM      6  C   UNL     1      -3.344  16.165 -33.467  0.00  0.00    +0.010 A 
ATOM      7  C   UNL     1      -3.008  16.284 -34.803  0.00  0.00    +0.090 A 
ATOM      8  C   UNL     1      -2.323  15.261 -35.446  0.00  0.00    -0.150 A 
ATOM      9  S   UNL     1      -1.914  15.433 -37.149  0.00  0.00    +0.040 S 
ATOM     10  C   UNL     1      -1.557  13.785 -37.653  0.00  0.00    -0.150 A 
ATOM     11  C   UNL     1      -1.545  13.475 -39.007  0.00  0.00    +0.110 A 
ATOM     12  C   UNL     1      -1.269  12.186 -39.424  0.00  0.00    +0.030 A 
ATOM     13  C   UNL     1      -1.004  11.201 -38.491  0.00  0.00    +0.000 A 
ATOM     14  C   UNL     1      -1.014  11.501 -37.142  0.00  0.00    -0.030 A 
ATOM     15 CL   UNL     1      -0.658   9.582 -39.016  0.00  0.00    -0.050 Cl
ATOM     16  C   UNL     1      -1.285  12.798 -36.712  0.00  0.00    +0.200 A 
ENDBRANCH   1   2
BRANCH   1  17
ATOM     17  C   UNL     1       0.774  12.914 -34.026  0.00  0.00    +0.010 C 
BRANCH  17  18
ATOM     18  C   UNL     1       1.203  12.385 -32.655  0.00  0.00    +0.270 C 
BRANCH  18  22
ATOM     19  C   UNL     1       0.051  15.823 -30.418  0.00  0.00    +0.000 C 
ATOM     20  C   UNL     1       1.224  15.920 -31.397  0.00  0.00    +0.080 C 
ATOM     21  C   UNL     1       1.141  14.768 -32.400  0.00  0.00    +0.270 C 
ATOM     22  N   UNL     1       1.205  13.488 -31.684  0.00  0.00    -0.380 N 
ATOM     23  C   UNL     1       0.045  13.355 -30.796  0.00  0.00    +0.260 C 
ATOM     24  H   UNL     1       2.052  13.450 -31.137  0.00  0.00    +0.430 HD
ATOM     25  C   UNL     1       0.085  14.454 -29.731  0.00  0.00    +0.090 C 
BRANCH  19  29
ATOM     26  N   UNL     1      -0.640  16.902 -28.302  0.00  0.00    -0.850 N 
ATOM     27  H   UNL     1      -1.303  16.201 -28.198  0.00  0.00    +0.400 HD
ATOM     28  H   UNL     1      -0.565  17.601 -27.635  0.00  0.00    +0.410 HD
ATOM     29  C   UNL     1       0.169  16.909 -29.380  0.00  0.00    +0.520 C 
ATOM     30  O   UNL     1       0.994  17.790 -29.513  0.00  0.00    -0.530 OA
ENDBRANCH  19  29
ENDBRANCH  18  22
ENDBRANCH  17  18
ENDBRANCH   1  17
TORSDOF 5
ENDMDL
MODEL 5
REMARK VINA RESULT:      -6.5      5.602      9.769
REMARK  Name = ZINC000000538183
REMARK  5 active torsions:
REMARK  status: ('A' for Active; 'I' for Inactive)
REMARK    1  A    between atoms: C2_2  and  C4_4
REMARK    2  A    between atoms: N7_7  and  C9_9
REMARK    3  A    between atoms: C9_9  and  C10_10
REMARK    4  A    between atoms: C10_10  and  C11_11
REMARK    5  A    between atoms: C11_11  and  N12_12
REMARK                            x       y       z     vdW  Elec       q    Type
REMARK                         _______ _______ _______ _____ _____    ______ ____
ROOT
ATOM      1  C   UNL     1      -0.414  16.453 -30.007  0.00  0.00    +0.320 C 
ENDROOT
BRANCH   1   2
ATOM      2  N   UNL     1      -0.312  17.717 -29.274  0.00  0.00    -0.560 N 
ATOM      3  C   UNL     1       0.491  18.717 -29.817  0.00  0.00    +0.180 A 
ATOM      4  C   UNL     1       1.520  18.356 -30.679  0.00  0.00    -0.040 A 
ATOM      5  C   UNL     1       2.334  19.323 -31.239  0.00  0.00    +0.050 A 
ATOM      6  C   UNL     1       2.130  20.658 -30.945  0.00  0.00    +0.010 A 
ATOM      7  C   UNL     1       1.111  21.028 -30.087  0.00  0.00    +0.090 A 
ATOM      8  C   UNL     1       0.289  20.063 -29.519  0.00  0.00    -0.150 A 
ATOM      9  S   UNL     1      -0.997  20.559 -28.425  0.00  0.00    +0.040 S 
ATOM     10  C   UNL     1      -1.410  19.073 -27.578  0.00  0.00    -0.150 A 
ATOM     11  C   UNL     1      -2.128  19.144 -26.391  0.00  0.00    +0.110 A 
ATOM     12  C   UNL     1      -2.461  17.988 -25.708  0.00  0.00    +0.030 A 
ATOM     13  C   UNL     1      -2.077  16.757 -26.208  0.00  0.00    +0.000 A 
ATOM     14  C   UNL     1      -1.362  16.679 -27.388  0.00  0.00    -0.030 A 
ATOM     15 CL   UNL     1      -2.494  15.307 -25.349  0.00  0.00    -0.050 Cl
ATOM     16  C   UNL     1      -1.027  17.837 -28.086  0.00  0.00    +0.200 A 
ENDBRANCH   1   2
BRANCH   1  17
ATOM     17  C   UNL     1       0.310  15.352 -29.229  0.00  0.00    +0.010 C 
BRANCH  17  18
ATOM     18  C   UNL     1       1.472  14.815 -30.068  0.00  0.00    +0.270 C 
BRANCH  18  22
ATOM     19  C   UNL     1       0.771  12.450 -33.542  0.00  0.00    +0.000 C 
ATOM     20  C   UNL     1       1.566  13.752 -33.666  0.00  0.00    +0.080 C 
ATOM     21  C   UNL     1       2.093  14.155 -32.287  0.00  0.00    +0.270 C 
ATOM     22  N   UNL     1       0.966  14.354 -31.368  0.00  0.00    -0.380 N 
ATOM     23  C   UNL     1       0.241  13.091 -31.187  0.00  0.00    +0.260 C 
ATOM     24  H   UNL     1       0.341  15.048 -31.749  0.00  0.00    +0.430 HD
ATOM     25  C   UNL     1      -0.357  12.647 -32.524  0.00  0.00    +0.090 C 
BRANCH  19  29
ATOM     26  N   UNL     1      -0.068  10.798 -35.180  0.00  0.00    -0.850 N 
ATOM     27  H   UNL     1       0.134  10.102 -34.535  0.00  0.00    +0.400 HD
ATOM     28  H   UNL     1      -0.446  10.565 -36.043  0.00  0.00    +0.410 HD
ATOM     29  C   UNL     1       0.183  12.088 -34.881  0.00  0.00    +0.520 C 
ATOM     30  O   UNL     1      -0.064  12.958 -35.690  0.00  0.00    -0.530 OA
ENDBRANCH  19  29
ENDBRANCH  18  22
ENDBRANCH  17  18
ENDBRANCH   1  17
TORSDOF 5
ENDMDL
MODEL 6
REMARK VINA RESULT:      -6.5     17.234     19.539
REMARK  Name = ZINC000000538183
REMARK  5 active torsions:
REMARK  status: ('A' for Active; 'I' for Inactive)
REMARK    1  A    between atoms: C2_2  and  C4_4
REMARK    2  A    between atoms: N7_7  and  C9_9
REMARK    3  A    between atoms: C9_9  and  C10_10
REMARK    4  A    between atoms: C10_10  and  C11_11
REMARK    5  A    between atoms: C11_11  and  N12_12
REMARK                            x       y       z     vdW  Elec       q    Type
REMARK                         _______ _______ _______ _____ _____    ______ ____
ROOT
ATOM      1  C   UNL     1       7.100  -4.505 -34.574  0.00  0.00    +0.320 C 
ENDROOT
BRANCH   1   2
ATOM      2  N   UNL     1       7.586  -4.660 -35.947  0.00  0.00    -0.560 N 
ATOM      3  C   UNL     1       8.964  -4.656 -36.151  0.00  0.00    +0.180 A 
ATOM      4  C   UNL     1       9.777  -4.022 -35.218  0.00  0.00    -0.040 A 
ATOM      5  C   UNL     1      11.149  -4.002 -35.387  0.00  0.00    +0.050 A 
ATOM      6  C   UNL     1      11.723  -4.613 -36.485  0.00  0.00    +0.010 A 
ATOM      7  C   UNL     1      10.923  -5.245 -37.420  0.00  0.00    +0.090 A 
ATOM      8  C   UNL     1       9.544  -5.268 -37.259  0.00  0.00    -0.150 A 
ATOM      9  S   UNL     1       8.548  -6.073 -38.467  0.00  0.00    +0.040 S 
ATOM     10  C   UNL     1       6.937  -5.431 -38.162  0.00  0.00    -0.150 A 
ATOM     11  C   UNL     1       5.959  -5.559 -39.139  0.00  0.00    +0.110 A 
ATOM     12  C   UNL     1       4.688  -5.059 -38.922  0.00  0.00    +0.030 A 
ATOM     13  C   UNL     1       4.389  -4.430 -37.727  0.00  0.00    +0.000 A 
ATOM     14  C   UNL     1       5.358  -4.300 -36.749  0.00  0.00    -0.030 A 
ATOM     15 CL   UNL     1       2.793  -3.803 -37.455  0.00  0.00    -0.050 Cl
ATOM     16  C   UNL     1       6.639  -4.805 -36.957  0.00  0.00    +0.200 A 
ENDBRANCH   1   2
BRANCH   1  17
ATOM     17  C   UNL     1       6.877  -5.885 -33.953  0.00  0.00    +0.010 C 
BRANCH  17  18
ATOM     18  C   UNL     1       5.838  -5.780 -32.834  0.00  0.00    +0.270 C 
BRANCH  18  22
ATOM     19  C   UNL     1       2.684  -2.929 -32.543  0.00  0.00    +0.000 C 
ATOM     20  C   UNL     1       2.811  -3.786 -33.806  0.00  0.00    +0.080 C 
ATOM     21  C   UNL     1       3.664  -5.018 -33.497  0.00  0.00    +0.270 C 
ATOM     22  N   UNL     1       4.999  -4.594 -33.056  0.00  0.00    -0.380 N 
ATOM     23  C   UNL     1       4.892  -3.833 -31.806  0.00  0.00    +0.260 C 
ATOM     24  H   UNL     1       5.419  -4.015 -33.767  0.00  0.00    +0.430 HD
ATOM     25  C   UNL     1       4.086  -2.555 -32.050  0.00  0.00    +0.090 C 
BRANCH  19  29
ATOM     26  N   UNL     1       2.220  -0.952 -33.955  0.00  0.00    -0.850 N 
ATOM     27  H   UNL     1       2.943  -1.237 -34.536  0.00  0.00    +0.400 HD
ATOM     28  H   UNL     1       1.723  -0.145 -34.159  0.00  0.00    +0.410 HD
ATOM     29  C   UNL     1       1.912  -1.675 -32.860  0.00  0.00    +0.520 C 
ATOM     30  O   UNL     1       1.011  -1.316 -32.131  0.00  0.00    -0.530 OA
ENDBRANCH  19  29
ENDBRANCH  18  22
ENDBRANCH  17  18
ENDBRANCH   1  17
TORSDOF 5
ENDMDL
MODEL 7
REMARK VINA RESULT:      -6.5     17.337     19.726
REMARK  Name = ZINC000000538183
REMARK  5 active torsions:
REMARK  status: ('A' for Active; 'I' for Inactive)
REMARK    1  A    between atoms: C2_2  and  C4_4
REMARK    2  A    between atoms: N7_7  and  C9_9
REMARK    3  A    between atoms: C9_9  and  C10_10
REMARK    4  A    between atoms: C10_10  and  C11_11
REMARK    5  A    between atoms: C11_11  and  N12_12
REMARK                            x       y       z     vdW  Elec       q    Type
REMARK                         _______ _______ _______ _____ _____    ______ ____
ROOT
ATOM      1  C   UNL     1       6.206  -4.195 -37.479  0.00  0.00    +0.320 C 
ENDROOT
BRANCH   1   2
ATOM      2  N   UNL     1       7.546  -4.740 -37.247  0.00  0.00    -0.560 N 
ATOM      3  C   UNL     1       8.172  -4.431 -36.042  0.00  0.00    +0.180 A 
ATOM      4  C   UNL     1       7.790  -3.278 -35.366  0.00  0.00    -0.040 A 
ATOM      5  C   UNL     1       8.388  -2.943 -34.166  0.00  0.00    +0.050 A 
ATOM      6  C   UNL     1       9.371  -3.752 -33.628  0.00  0.00    +0.010 A 
ATOM      7  C   UNL     1       9.759  -4.901 -34.294  0.00  0.00    +0.090 A 
ATOM      8  C   UNL     1       9.165  -5.244 -35.501  0.00  0.00    -0.150 A 
ATOM      9  S   UNL     1       9.682  -6.707 -36.332  0.00  0.00    +0.040 S 
ATOM     10  C   UNL     1       9.088  -6.478 -37.973  0.00  0.00    -0.150 A 
ATOM     11  C   UNL     1       9.611  -7.253 -39.000  0.00  0.00    +0.110 A 
ATOM     12  C   UNL     1       9.160  -7.087 -40.297  0.00  0.00    +0.030 A 
ATOM     13  C   UNL     1       8.185  -6.145 -40.573  0.00  0.00    +0.000 A 
ATOM     14  C   UNL     1       7.660  -5.371 -39.556  0.00  0.00    -0.030 A 
ATOM     15 CL   UNL     1       7.621  -5.937 -42.201  0.00  0.00    -0.050 Cl
ATOM     16  C   UNL     1       8.103  -5.535 -38.246  0.00  0.00    +0.200 A 
ENDBRANCH   1   2
BRANCH   1  17
ATOM     17  C   UNL     1       5.178  -5.021 -36.702  0.00  0.00    +0.010 C 
BRANCH  17  18
ATOM     18  C   UNL     1       3.777  -4.457 -36.953  0.00  0.00    +0.270 C 
BRANCH  18  22
ATOM     19  C   UNL     1       2.346  -2.846 -33.278  0.00  0.00    +0.000 C 
ATOM     20  C   UNL     1       1.601  -2.533 -34.578  0.00  0.00    +0.080 C 
ATOM     21  C   UNL     1       1.980  -3.567 -35.639  0.00  0.00    +0.270 C 
ATOM     22  N   UNL     1       3.428  -3.517 -35.880  0.00  0.00    -0.380 N 
ATOM     23  C   UNL     1       4.149  -3.886 -34.657  0.00  0.00    +0.260 C 
ATOM     24  H   UNL     1       3.691  -2.582 -36.155  0.00  0.00    +0.430 HD
ATOM     25  C   UNL     1       3.852  -2.864 -33.557  0.00  0.00    +0.090 C 
BRANCH  19  29
ATOM     26  N   UNL     1       2.984  -1.405 -31.371  0.00  0.00    -0.850 N 
ATOM     27  H   UNL     1       3.863  -1.817 -31.396  0.00  0.00    +0.400 HD
ATOM     28  H   UNL     1       2.785  -0.724 -30.711  0.00  0.00    +0.410 HD
ATOM     29  C   UNL     1       2.037  -1.786 -32.252  0.00  0.00    +0.520 C 
ATOM     30  O   UNL     1       0.937  -1.276 -32.218  0.00  0.00    -0.530 OA
ENDBRANCH  19  29
ENDBRANCH  18  22
ENDBRANCH  17  18
ENDBRANCH   1  17
TORSDOF 5
ENDMDL
MODEL 8
REMARK VINA RESULT:      -6.4      5.812      8.414
REMARK  Name = ZINC000000538183
REMARK  5 active torsions:
REMARK  status: ('A' for Active; 'I' for Inactive)
REMARK    1  A    between atoms: C2_2  and  C4_4
REMARK    2  A    between atoms: N7_7  and  C9_9
REMARK    3  A    between atoms: C9_9  and  C10_10
REMARK    4  A    between atoms: C10_10  and  C11_11
REMARK    5  A    between atoms: C11_11  and  N12_12
REMARK                            x       y       z     vdW  Elec       q    Type
REMARK                         _______ _______ _______ _____ _____    ______ ____
ROOT
ATOM      1  C   UNL     1      -0.105  16.919 -30.359  0.00  0.00    +0.320 C 
ENDROOT
BRANCH   1   2
ATOM      2  N   UNL     1      -0.683  16.097 -31.424  0.00  0.00    -0.560 N 
ATOM      3  C   UNL     1       0.083  15.046 -31.921  0.00  0.00    +0.180 A 
ATOM      4  C   UNL     1       1.466  15.111 -31.800  0.00  0.00    -0.040 A 
ATOM      5  C   UNL     1       2.258  14.084 -32.278  0.00  0.00    +0.050 A 
ATOM      6  C   UNL     1       1.680  12.984 -32.881  0.00  0.00    +0.010 A 
ATOM      7  C   UNL     1       0.305  12.910 -33.009  0.00  0.00    +0.090 A 
ATOM      8  C   UNL     1      -0.498  13.938 -32.532  0.00  0.00    -0.150 A 
ATOM      9  S   UNL     1      -2.245  13.823 -32.713  0.00  0.00    +0.040 S 
ATOM     10  C   UNL     1      -2.791  15.479 -32.474  0.00  0.00    -0.150 A 
ATOM     11  C   UNL     1      -4.063  15.843 -32.894  0.00  0.00    +0.110 A 
ATOM     12  C   UNL     1      -4.511  17.140 -32.718  0.00  0.00    +0.030 A 
ATOM     13  C   UNL     1      -3.689  18.078 -32.121  0.00  0.00    +0.000 A 
ATOM     14  C   UNL     1      -2.421  17.723 -31.699  0.00  0.00    -0.030 A 
ATOM     15 CL   UNL     1      -4.251  19.706 -31.901  0.00  0.00    -0.050 Cl
ATOM     16  C   UNL     1      -1.964  16.418 -31.868  0.00  0.00    +0.200 A 
ENDBRANCH   1   2
BRANCH   1  17
ATOM     17  C   UNL     1      -0.672  16.478 -29.008  0.00  0.00    +0.010 C 
BRANCH  17  18
ATOM     18  C   UNL     1      -0.736  17.681 -28.064  0.00  0.00    +0.270 C 
BRANCH  18  22
ATOM     19  C   UNL     1      -4.496  16.443 -26.488  0.00  0.00    +0.000 C 
ATOM     20  C   UNL     1      -4.365  17.832 -27.118  0.00  0.00    +0.080 C 
ATOM     21  C   UNL     1      -3.126  17.864 -28.016  0.00  0.00    +0.270 C 
ATOM     22  N   UNL     1      -1.930  17.574 -27.215  0.00  0.00    -0.380 N 
ATOM     23  C   UNL     1      -2.016  16.216 -26.666  0.00  0.00    +0.260 C 
ATOM     24  H   UNL     1      -1.864  18.237 -26.458  0.00  0.00    +0.430 HD
ATOM     25  C   UNL     1      -3.213  16.120 -25.716  0.00  0.00    +0.090 C 
BRANCH  19  29
ATOM     26  N   UNL     1      -5.838  17.434 -24.662  0.00  0.00    -0.850 N 
ATOM     27  H   UNL     1      -5.201  18.166 -24.634  0.00  0.00    +0.400 HD
ATOM     28  H   UNL     1      -6.592  17.424 -24.053  0.00  0.00    +0.410 HD
ATOM     29  C   UNL     1      -5.669  16.427 -25.542  0.00  0.00    +0.520 C 
ATOM     30  O   UNL     1      -6.462  15.509 -25.572  0.00  0.00    -0.530 OA
ENDBRANCH  19  29
ENDBRANCH  18  22
ENDBRANCH  17  18
ENDBRANCH   1  17
TORSDOF 5
ENDMDL
MODEL 9
REMARK VINA RESULT:      -6.3      6.063      8.924
REMARK  Name = ZINC000000538183
REMARK  5 active torsions:
REMARK  status: ('A' for Active; 'I' for Inactive)
REMARK    1  A    between atoms: C2_2  and  C4_4
REMARK    2  A    between atoms: N7_7  and  C9_9
REMARK    3  A    between atoms: C9_9  and  C10_10
REMARK    4  A    between atoms: C10_10  and  C11_11
REMARK    5  A    between atoms: C11_11  and  N12_12
REMARK                            x       y       z     vdW  Elec       q    Type
REMARK                         _______ _______ _______ _____ _____    ______ ____
ROOT
ATOM      1  C   UNL     1       0.719  16.151 -29.511  0.00  0.00    +0.320 C 
ENDROOT
BRANCH   1   2
ATOM      2  N   UNL     1       0.216  16.333 -30.874  0.00  0.00    -0.560 N 
ATOM      3  C   UNL     1      -0.468  15.270 -31.461  0.00  0.00    +0.180 A 
ATOM      4  C   UNL     1      -0.219  13.981 -31.004  0.00  0.00    -0.040 A 
ATOM      5  C   UNL     1      -0.882  12.903 -31.560  0.00  0.00    +0.050 A 
ATOM      6  C   UNL     1      -1.798  13.100 -32.576  0.00  0.00    +0.010 A 
ATOM      7  C   UNL     1      -2.051  14.378 -33.039  0.00  0.00    +0.090 A 
ATOM      8  C   UNL     1      -1.389  15.466 -32.487  0.00  0.00    -0.150 A 
ATOM      9  S   UNL     1      -1.724  17.082 -33.099  0.00  0.00    +0.040 S 
ATOM     10  C   UNL     1      -0.357  18.029 -32.523  0.00  0.00    -0.150 A 
ATOM     11  C   UNL     1      -0.089  19.261 -33.106  0.00  0.00    +0.110 A 
ATOM     12  C   UNL     1       0.982  20.020 -32.671  0.00  0.00    +0.030 A 
ATOM     13  C   UNL     1       1.790  19.552 -31.651  0.00  0.00    +0.000 A 
ATOM     14  C   UNL     1       1.529  18.327 -31.065  0.00  0.00    -0.030 A 
ATOM     15 CL   UNL     1       3.134  20.506 -31.106  0.00  0.00    -0.050 Cl
ATOM     16  C   UNL     1       0.449  17.558 -31.493  0.00  0.00    +0.200 A 
ENDBRANCH   1   2
BRANCH   1  17
ATOM     17  C   UNL     1      -0.457  16.107 -28.534  0.00  0.00    +0.010 C 
BRANCH  17  18
ATOM     18  C   UNL     1      -0.747  17.520 -28.021  0.00  0.00    +0.270 C 
BRANCH  18  22
ATOM     19  C   UNL     1      -4.557  16.539 -26.386  0.00  0.00    +0.000 C 
ATOM     20  C   UNL     1      -4.340  17.918 -27.014  0.00  0.00    +0.080 C 
ATOM     21  C   UNL     1      -3.117  17.867 -27.932  0.00  0.00    +0.270 C 
ATOM     22  N   UNL     1      -1.931  17.492 -27.152  0.00  0.00    -0.380 N 
ATOM     23  C   UNL     1      -2.101  16.141 -26.605  0.00  0.00    +0.260 C 
ATOM     24  H   UNL     1      -1.806  18.147 -26.395  0.00  0.00    +0.430 HD
ATOM     25  C   UNL     1      -3.286  16.125 -25.637  0.00  0.00    +0.090 C 
BRANCH  19  29
ATOM     26  N   UNL     1      -5.907  17.705 -24.673  0.00  0.00    -0.850 N 
ATOM     27  H   UNL     1      -5.300  18.458 -24.753  0.00  0.00    +0.400 HD
ATOM     28  H   UNL     1      -6.650  17.745 -24.051  0.00  0.00    +0.410 HD
ATOM     29  C   UNL     1      -5.712  16.600 -25.420  0.00  0.00    +0.520 C 
ATOM     30  O   UNL     1      -6.468  15.657 -25.316  0.00  0.00    -0.530 OA
ENDBRANCH  19  29
ENDBRANCH  18  22
ENDBRANCH  17  18
ENDBRANCH   1  17
TORSDOF 5
ENDMDL
