REMARK  Name = ZINC000000538183
REMARK  5 active torsions:
REMARK  status: ('A' for Active; 'I' for Inactive)
REMARK    1  A    between atoms: C2_2  and  C4_4
REMARK    2  A    between atoms: N7_7  and  C9_9
REMARK    3  A    between atoms: C9_9  and  C10_10
REMARK    4  A    between atoms: C10_10  and  C11_11
REMARK    5  A    between atoms: C11_11  and  N12_12
REMARK                            x       y       z     vdW  Elec       q    Type
REMARK                         _______ _______ _______ _____ _____    ______ ____
ROOT
ATOM      1  C   UNL     1      -5.178  -5.814  -1.418  0.00  0.00    +0.320 C 
ENDROOT
BRANCH   1   2
ATOM      2  N   UNL     1      -4.838  -7.236  -1.334  0.00  0.00    -0.560 N 
ATOM      3  C   UNL     1      -4.717  -7.800  -0.066  0.00  0.00    +0.180 A 
ATOM      4  C   UNL     1      -4.412  -6.972   1.008  0.00  0.00    -0.040 A 
ATOM      5  C   UNL     1      -4.288  -7.497   2.281  0.00  0.00    +0.050 A 
ATOM      6  C   UNL     1      -4.467  -8.850   2.495  0.00  0.00    +0.010 A 
ATOM      7  C   UNL     1      -4.769  -9.683   1.433  0.00  0.00    +0.090 A 
ATOM      8  C   UNL     1      -4.894  -9.164   0.151  0.00  0.00    -0.150 A 
ATOM      9  S   UNL     1      -5.272 -10.246  -1.185  0.00  0.00    +0.040 S 
ATOM     10  C   UNL     1      -4.829  -9.310  -2.608  0.00  0.00    -0.150 A 
ATOM     11  C   UNL     1      -4.649  -9.961  -3.821  0.00  0.00    +0.110 A 
ATOM     12  C   UNL     1      -4.298  -9.245  -4.951  0.00  0.00    +0.030 A 
ATOM     13  C   UNL     1      -4.125  -7.875  -4.873  0.00  0.00    +0.000 A 
ATOM     14  C   UNL     1      -4.303  -7.220  -3.669  0.00  0.00    -0.030 A 
ATOM     15 CL   UNL     1      -3.684  -6.977  -6.292  0.00  0.00    -0.050 Cl
ATOM     16  C   UNL     1      -4.662  -7.932  -2.527  0.00  0.00    +0.200 A 
ENDBRANCH   1   2
BRANCH   1  17
ATOM     17  C   UNL     1      -3.894  -4.982  -1.431  0.00  0.00    +0.010 C 
BRANCH  17  18
ATOM     18  C   UNL     1      -4.250  -3.496  -1.519  0.00  0.00    +0.270 C 
BRANCH  18  22
ATOM     19  C   UNL     1      -1.170  -0.770  -0.407  0.00  0.00    +0.000 C 
ATOM     20  C   UNL     1      -2.083  -0.433  -1.589  0.00  0.00    +0.080 C 
ATOM     21  C   UNL     1      -3.360  -1.270  -1.495  0.00  0.00    +0.270 C 
ATOM     22  N   UNL     1      -3.017  -2.697  -1.532  0.00  0.00    -0.380 N 
ATOM     23  C   UNL     1      -2.201  -3.044  -0.363  0.00  0.00    +0.260 C 
ATOM     24  H   UNL     1      -2.498  -2.896  -2.374  0.00  0.00    +0.430 HD
ATOM     25  C   UNL     1      -0.879  -2.274  -0.413  0.00  0.00    +0.090 C 
BRANCH  19  29
ATOM     26  N   UNL     1       0.111   1.341  -0.552  0.00  0.00    -0.850 N 
ATOM     27  H   UNL     1      -0.731   1.819  -0.487  0.00  0.00    +0.400 HD
ATOM     28  H   UNL     1       0.943   1.832  -0.635  0.00  0.00    +0.410 HD
ATOM     29  C   UNL     1       0.123  -0.007  -0.535  0.00  0.00    +0.520 C 
ATOM     30  O   UNL     1       1.175  -0.605  -0.622  0.00  0.00    -0.530 OA
ENDBRANCH  19  29
ENDBRANCH  18  22
ENDBRANCH  17  18
ENDBRANCH   1  17
TORSDOF 5
