@<TRIPOS>MOLECULE
ZINC000000538183
  52   55    0    0    0
SMALL
USER_CHARGES
NO_NAME
@<TRIPOS>ATOM
    1 N1        0.1107     1.3409    -0.5523 N.am   1 <0>      -0.8500
    2 C2        0.1230    -0.0067    -0.5348 C.2    1 <0>       0.5200
    3 O3        1.1745    -0.6048    -0.6219 O.2    1 <0>      -0.5300
    4 C4       -1.1699    -0.7704    -0.4070 C.3    1 <0>      -0.1200
    5 C5       -2.0832    -0.4326    -1.5889 C.3    1 <0>      -0.1400
    6 C6       -3.3602    -1.2705    -1.4954 C.3    1 <0>       0.0000
    7 N7       -3.0174    -2.6973    -1.5322 N.4    1 <0>      -0.3800
    8 H8       -2.4982    -2.8958    -2.3743 H      1 <0>       0.4300
    9 C9       -4.2501    -3.4961    -1.5190 C.3    1 <0>      -0.0100
   10 C10      -3.8943    -4.9816    -1.4315 C.3    1 <0>      -0.1900
   11 C11      -5.1783    -5.8135    -1.4177 C.3    1 <0>       0.1200
   12 N12      -4.8376    -7.2359    -1.3339 N.pl3  1 <0>      -0.5600
   13 C13      -4.7168    -7.8003    -0.0664 C.ar   1 <0>       0.1800
   14 C14      -4.4118    -6.9722     1.0085 C.ar   1 <0>      -0.1600
   15 C15      -4.2883    -7.4969     2.2814 C.ar   1 <0>      -0.0800
   16 C16      -4.4671    -8.8502     2.4948 C.ar   1 <0>      -0.1300
   17 C17      -4.7691    -9.6827     1.4328 C.ar   1 <0>      -0.0500
   18 C18      -4.8936    -9.1636     0.1512 C.ar   1 <0>      -0.1500
   19 S19      -5.2725   -10.2457    -1.1846 S.3    1 <0>       0.0400
   20 C20      -4.8286    -9.3098    -2.6079 C.ar   1 <0>      -0.1500
   21 C21      -4.6487    -9.9610    -3.8207 C.ar   1 <0>      -0.0400
   22 C22      -4.2984    -9.2448    -4.9506 C.ar   1 <0>      -0.1200
   23 C23      -4.1255    -7.8752    -4.8735 C.ar   1 <0>       0.0000
   24 Cl24     -3.6844    -6.9766    -6.2918 Cl     1 <0>      -0.0500
   25 C25      -4.3030    -7.2197    -3.6686 C.ar   1 <0>      -0.1600
   26 C26      -4.6623    -7.9322    -2.5273 C.ar   1 <0>       0.2000
   27 C27      -2.2008    -3.0436    -0.3627 C.3    1 <0>      -0.0100
   28 C28      -0.8792    -2.2740    -0.4126 C.3    1 <0>      -0.1300
   29 H29       0.9429     1.8324    -0.6346 H      1 <0>       0.4100
   30 H30      -0.7306     1.8191    -0.4866 H      1 <0>       0.4000
   31 H31      -1.6634    -0.4981     0.5260 H      1 <0>       0.1200
   32 H32      -2.3398     0.6263    -1.5596 H      1 <0>       0.1200
   33 H33      -1.5680    -0.6573    -2.5228 H      1 <0>       0.1000
   34 H34      -3.8747    -1.0449    -0.5614 H      1 <0>       0.1300
   35 H35      -4.0128    -1.0323    -2.3354 H      1 <0>       0.1400
   36 H36      -4.8553    -3.2160    -0.6568 H      1 <0>       0.1400
   37 H37      -4.8131    -3.3106    -2.4337 H      1 <0>       0.1400
   38 H38      -3.2892    -5.2616    -2.2937 H      1 <0>       0.1000
   39 H39      -3.3313    -5.1671    -0.5168 H      1 <0>       0.1000
   40 H40      -5.7835    -5.5335    -0.5555 H      1 <0>       0.1000
   41 H41      -5.7413    -5.6280    -2.3324 H      1 <0>       0.1000
   42 H42      -4.2704    -5.9136     0.8479 H      1 <0>       0.1200
   43 H43      -4.0512    -6.8475     3.1111 H      1 <0>       0.1300
   44 H44      -4.3706    -9.2576     3.4903 H      1 <0>       0.1400
   45 H45      -4.9083   -10.7405     1.6008 H      1 <0>       0.1400
   46 H46      -4.7824   -11.0310    -3.8819 H      1 <0>       0.1500
   47 H47      -4.1595    -9.7549    -5.8924 H      1 <0>       0.1500
   48 H48      -4.1653    -6.1499    -3.6137 H      1 <0>       0.1300
   49 H49      -2.7400    -2.7802     0.5472 H      1 <0>       0.1300
   50 H50      -1.9975    -4.1145    -0.3664 H      1 <0>       0.1400
   51 H51      -0.3390    -2.5369    -1.3221 H      1 <0>       0.1000
   52 H52      -0.2752    -2.5312     0.4575 H      1 <0>       0.1200
@<TRIPOS>BOND
   1    1    2 am
   2    1   29 1
   3    1   30 1
   4    2    3 2
   5    2    4 1
   6    4   28 1
   7    4    5 1
   8    4   31 1
   9    5    6 1
  10    5   32 1
  11    5   33 1
  12    6    7 1
  13    6   34 1
  14    6   35 1
  15    7    8 1
  16    7    9 1
  17    7   27 1
  18    9   10 1
  19    9   36 1
  20    9   37 1
  21   10   11 1
  22   10   38 1
  23   10   39 1
  24   11   12 1
  25   11   40 1
  26   11   41 1
  27   12   26 1
  28   12   13 1
  29   13   18 ar
  30   13   14 ar
  31   14   15 ar
  32   14   42 1
  33   15   16 ar
  34   15   43 1
  35   16   17 ar
  36   16   44 1
  37   17   18 ar
  38   17   45 1
  39   18   19 1
  40   19   20 1
  41   20   26 ar
  42   20   21 ar
  43   21   22 ar
  44   21   46 1
  45   22   23 ar
  46   22   47 1
  47   23   24 1
  48   23   25 ar
  49   25   26 ar
  50   25   48 1
  51   27   28 1
  52   27   49 1
  53   27   50 1
  54   28   51 1
  55   28   52 1
