MODEL 1
REMARK VINA RESULT:      -8.2      0.000      0.000
REMARK  Name = ZINC000003914596
REMARK  17 active torsions:
REMARK  status: ('A' for Active; 'I' for Inactive)
REMARK    1  A    between atoms: C1_1  and  C2_2
REMARK    2  A    between atoms: C2_2  and  C3_3
REMARK    3  A    between atoms: C2_2  and  C4_4
REMARK    4  A    between atoms: C2_2  and  N5_5
REMARK    5  A    between atoms: C6_6  and  C8_8
REMARK    6  A    between atoms: N20_20  and  C22_22
REMARK    7  A    between atoms: C22_22  and  C23_23
REMARK    8  A    between atoms: C23_23  and  O25_25
REMARK    9  A    between atoms: C23_23  and  C26_26
REMARK   10  A    between atoms: C26_26  and  C28_28
REMARK   11  A    between atoms: C26_26  and  N35_35
REMARK   12  A    between atoms: C28_28  and  C29_29
REMARK   13  A    between atoms: C36_36  and  C38_38
REMARK   14  A    between atoms: C38_38  and  C40_40
REMARK   15  A    between atoms: C38_38  and  N44_44
REMARK   16  A    between atoms: C40_40  and  C41_41
REMARK   17  A    between atoms: C45_45  and  C47_47
REMARK                            x       y       z     vdW  Elec       q    Type
REMARK                         _______ _______ _______ _____ _____    ______ ____
ROOT
ATOM      1  C   UNL     1       2.368  -3.080 -31.064  0.00  0.00    +0.240 C 
ENDROOT
BRANCH   1   2
ATOM      2  N   UNL     1       2.015  -3.564 -32.401  0.00  0.00    -0.730 N 
ATOM      3  H   UNL     1       2.240  -4.470 -32.664  0.00  0.00    +0.400 HD
ATOM      4  C   UNL     1       1.378  -2.749 -33.267  0.00  0.00    +0.520 C 
ATOM      5  O   UNL     1       1.096  -1.617 -32.938  0.00  0.00    -0.480 OA
BRANCH   4   6
ATOM      6  C   UNL     1       1.016  -3.247 -34.642  0.00  0.00    +0.270 C 
BRANCH   6   7
ATOM      7  N   UNL     1      -0.418  -3.543 -34.691  0.00  0.00    -0.680 N 
ATOM      8  H   UNL     1      -1.065  -2.823 -34.639  0.00  0.00    +0.430 HD
ATOM      9  C   UNL     1      -0.840  -4.819 -34.808  0.00  0.00    +0.580 C 
ATOM     10  O   UNL     1      -0.035  -5.729 -34.782  0.00  0.00    -0.530 OA
BRANCH   9  11
ATOM     11  C   UNL     1      -2.284  -5.111 -34.968  0.00  0.00    +0.110 A 
ATOM     12  C   UNL     1      -2.688  -6.414 -35.294  0.00  0.00    +0.020 A 
ATOM     13  C   UNL     1      -4.016  -6.695 -35.443  0.00  0.00    +0.090 A 
ATOM     14  C   UNL     1      -4.943  -5.653 -35.262  0.00  0.00    -0.080 A 
ATOM     15  C   UNL     1      -6.323  -5.871 -35.401  0.00  0.00    +0.040 A 
ATOM     16  C   UNL     1      -7.190  -4.838 -35.218  0.00  0.00    +0.030 A 
ATOM     17  C   UNL     1      -6.727  -3.563 -34.895  0.00  0.00    +0.030 A 
ATOM     18  C   UNL     1      -5.398  -3.314 -34.753  0.00  0.00    +0.050 A 
ATOM     19  C   UNL     1      -4.469  -4.356 -34.934  0.00  0.00    +0.120 A 
ATOM     20  N   UNL     1      -3.160  -4.140 -34.795  0.00  0.00    -0.430 NA
ENDBRANCH   9  11
ENDBRANCH   6   7
BRANCH   6  21
ATOM     21  C   UNL     1       1.350  -2.173 -35.678  0.00  0.00    +0.060 C 
BRANCH  21  22
ATOM     22  C   UNL     1       1.479  -2.810 -37.039  0.00  0.00    +0.510 C 
ATOM     23  O   UNL     1       0.514  -3.326 -37.561  0.00  0.00    -0.520 OA
ATOM     24  N   UNL     1       2.668  -2.807 -37.673  0.00  0.00    -0.860 N 
ATOM     25  H   UNL     1       2.751  -3.216 -38.548  0.00  0.00    +0.400 HD
ATOM     26  H   UNL     1       3.440  -2.393 -37.256  0.00  0.00    +0.400 HD
ENDBRANCH  21  22
ENDBRANCH   6  21
ENDBRANCH   4   6
ENDBRANCH   1   2
BRANCH   1  27
ATOM     27  C   UNL     1       3.851  -3.345 -30.800  0.00  0.00    +0.210 C 
BRANCH  27  28
ATOM     28  O   UNL     1       4.520  -2.105 -30.557  0.00  0.00    -0.550 OA
ATOM     29  H   UNL     1       5.048  -1.790 -31.303  0.00  0.00    +0.390 HD
ENDBRANCH  27  28
BRANCH  27  30
ATOM     30  C   UNL     1       4.471  -4.029 -32.019  0.00  0.00    +0.240 C 
BRANCH  30  40
ATOM     31  C   UNL     1       5.331  -2.615 -33.735  0.00  0.00    +0.160 C 
ATOM     32  C   UNL     1       6.522  -1.770 -34.192  0.00  0.00    +0.100 C 
ATOM     33  C   UNL     1       7.741  -2.682 -34.376  0.00  0.00    +0.010 C 
ATOM     34  C   UNL     1       7.440  -3.699 -35.479  0.00  0.00    +0.010 C 
ATOM     35  C   UNL     1       8.633  -4.641 -35.648  0.00  0.00    +0.020 C 
ATOM     36  C   UNL     1       8.886  -5.382 -34.333  0.00  0.00    +0.010 C 
ATOM     37  C   UNL     1       9.193  -4.367 -33.230  0.00  0.00    +0.040 C 
ATOM     38  C   UNL     1       8.019  -3.404 -33.056  0.00  0.00    +0.000 C 
ATOM     39  C   UNL     1       6.762  -4.182 -32.665  0.00  0.00    +0.250 C 
ATOM     40  N   UNL     1       5.649  -3.270 -32.461  0.00  0.00    -0.350 N 
ATOM     41  H   UNL     1       5.896  -2.594 -31.754  0.00  0.00    +0.430 HD
BRANCH  31  44
ATOM     42  N   UNL     1       5.017  -4.967 -34.434  0.00  0.00    -0.700 N 
ATOM     43  H   UNL     1       5.203  -5.231 -33.520  0.00  0.00    +0.410 HD
ATOM     44  C   UNL     1       5.029  -3.662 -34.775  0.00  0.00    +0.530 C 
ATOM     45  O   UNL     1       4.796  -3.332 -35.919  0.00  0.00    -0.530 OA
BRANCH  42  47
ATOM     46  C   UNL     1       5.075  -5.444 -36.832  0.00  0.00    +0.040 C 
ATOM     47  C   UNL     1       4.723  -5.985 -35.445  0.00  0.00    +0.170 C 
ATOM     48  C   UNL     1       5.553  -7.239 -35.162  0.00  0.00    +0.060 C 
ATOM     49  C   UNL     1       3.235  -6.337 -35.397  0.00  0.00    +0.050 C 
ENDBRANCH  42  47
ENDBRANCH  31  44
ENDBRANCH  30  40
ENDBRANCH  27  30
ENDBRANCH   1  27
BRANCH   1  50
ATOM     50  C   UNL     1       1.524  -3.812 -30.019  0.00  0.00    +0.060 C 
BRANCH  50  51
ATOM     51  C   UNL     1       1.422  -2.969 -28.773  0.00  0.00    -0.080 A 
ATOM     52  C   UNL     1       2.055  -3.373 -27.612  0.00  0.00    +0.000 A 
ATOM     53  C   UNL     1       1.963  -2.600 -26.470  0.00  0.00    +0.010 A 
ATOM     54  C   UNL     1       1.239  -1.423 -26.489  0.00  0.00    +0.010 A 
ATOM     55  C   UNL     1       0.607  -1.019 -27.650  0.00  0.00    +0.010 A 
ATOM     56  C   UNL     1       0.703  -1.789 -28.794  0.00  0.00    +0.000 A 
ENDBRANCH  50  51
ENDBRANCH   1  50
TORSDOF 14
ENDMDL
MODEL 2
REMARK VINA RESULT:      -8.1     21.356     25.842
REMARK  Name = ZINC000003914596
REMARK  17 active torsions:
REMARK  status: ('A' for Active; 'I' for Inactive)
REMARK    1  A    between atoms: C1_1  and  C2_2
REMARK    2  A    between atoms: C2_2  and  C3_3
REMARK    3  A    between atoms: C2_2  and  C4_4
REMARK    4  A    between atoms: C2_2  and  N5_5
REMARK    5  A    between atoms: C6_6  and  C8_8
REMARK    6  A    between atoms: N20_20  and  C22_22
REMARK    7  A    between atoms: C22_22  and  C23_23
REMARK    8  A    between atoms: C23_23  and  O25_25
REMARK    9  A    between atoms: C23_23  and  C26_26
REMARK   10  A    between atoms: C26_26  and  C28_28
REMARK   11  A    between atoms: C26_26  and  N35_35
REMARK   12  A    between atoms: C28_28  and  C29_29
REMARK   13  A    between atoms: C36_36  and  C38_38
REMARK   14  A    between atoms: C38_38  and  C40_40
REMARK   15  A    between atoms: C38_38  and  N44_44
REMARK   16  A    between atoms: C40_40  and  C41_41
REMARK   17  A    between atoms: C45_45  and  C47_47
REMARK                            x       y       z     vdW  Elec       q    Type
REMARK                         _______ _______ _______ _____ _____    ______ ____
ROOT
ATOM      1  C   UNL     1     -22.095  -5.562 -28.841  0.00  0.00    +0.240 C 
ENDROOT
BRANCH   1   2
ATOM      2  N   UNL     1     -21.647  -5.375 -27.459  0.00  0.00    -0.730 N 
ATOM      3  H   UNL     1     -20.768  -5.684 -27.188  0.00  0.00    +0.400 HD
ATOM      4  C   UNL     1     -22.455  -4.773 -26.564  0.00  0.00    +0.520 C 
ATOM      5  O   UNL     1     -23.553  -4.386 -26.902  0.00  0.00    -0.480 OA
BRANCH   4   6
ATOM      6  C   UNL     1     -21.993  -4.581 -25.143  0.00  0.00    +0.270 C 
BRANCH   6   7
ATOM      7  N   UNL     1     -23.025  -5.070 -24.224  0.00  0.00    -0.680 N 
ATOM      8  H   UNL     1     -23.219  -6.018 -24.173  0.00  0.00    +0.430 HD
ATOM      9  C   UNL     1     -23.704  -4.200 -23.449  0.00  0.00    +0.580 C 
ATOM     10  O   UNL     1     -23.525  -3.005 -23.577  0.00  0.00    -0.530 OA
BRANCH   9  11
ATOM     11  C   UNL     1     -24.669  -4.702 -22.442  0.00  0.00    +0.110 A 
ATOM     12  C   UNL     1     -26.043  -4.645 -22.721  0.00  0.00    +0.020 A 
ATOM     13  C   UNL     1     -26.942  -5.105 -21.802  0.00  0.00    +0.090 A 
ATOM     14  C   UNL     1     -26.450  -5.627 -20.592  0.00  0.00    -0.080 A 
ATOM     15  C   UNL     1     -27.318  -6.117 -19.603  0.00  0.00    +0.040 A 
ATOM     16  C   UNL     1     -26.805  -6.615 -18.444  0.00  0.00    +0.030 A 
ATOM     17  C   UNL     1     -25.428  -6.646 -18.225  0.00  0.00    +0.030 A 
ATOM     18  C   UNL     1     -24.558  -6.180 -19.159  0.00  0.00    +0.050 A 
ATOM     19  C   UNL     1     -25.048  -5.656 -20.372  0.00  0.00    +0.120 A 
ATOM     20  N   UNL     1     -24.217  -5.198 -21.307  0.00  0.00    -0.430 NA
ENDBRANCH   9  11
ENDBRANCH   6   7
BRANCH   6  21
ATOM     21  C   UNL     1     -20.698  -5.363 -24.917  0.00  0.00    +0.060 C 
BRANCH  21  22
ATOM     22  C   UNL     1     -19.687  -4.474 -24.237  0.00  0.00    +0.510 C 
ATOM     23  O   UNL     1     -20.037  -3.726 -23.350  0.00  0.00    -0.520 OA
ATOM     24  N   UNL     1     -18.394  -4.512 -24.617  0.00  0.00    -0.860 N 
ATOM     25  H   UNL     1     -17.744  -3.940 -24.180  0.00  0.00    +0.400 HD
ATOM     26  H   UNL     1     -18.114  -5.111 -25.326  0.00  0.00    +0.400 HD
ENDBRANCH  21  22
ENDBRANCH   6  21
ENDBRANCH   4   6
ENDBRANCH   1   2
BRANCH   1  27
ATOM     27  C   UNL     1     -21.830  -7.006 -29.273  0.00  0.00    +0.210 C 
BRANCH  27  28
ATOM     28  O   UNL     1     -21.349  -7.756 -28.155  0.00  0.00    -0.550 OA
ATOM     29  H   UNL     1     -21.656  -7.427 -27.299  0.00  0.00    +0.390 HD
ENDBRANCH  27  28
BRANCH  27  30
ATOM     30  C   UNL     1     -20.781  -7.021 -30.386  0.00  0.00    +0.240 C 
BRANCH  30  40
ATOM     31  C   UNL     1     -21.385  -8.826 -31.820  0.00  0.00    +0.160 C 
ATOM     32  C   UNL     1     -22.099  -9.222 -33.114  0.00  0.00    +0.100 C 
ATOM     33  C   UNL     1     -21.389  -8.559 -34.301  0.00  0.00    +0.010 C 
ATOM     34  C   UNL     1     -19.954  -9.084 -34.380  0.00  0.00    +0.010 C 
ATOM     35  C   UNL     1     -19.220  -8.402 -35.535  0.00  0.00    +0.020 C 
ATOM     36  C   UNL     1     -19.191  -6.890 -35.298  0.00  0.00    +0.010 C 
ATOM     37  C   UNL     1     -20.626  -6.362 -35.225  0.00  0.00    +0.040 C 
ATOM     38  C   UNL     1     -21.383  -7.043 -34.086  0.00  0.00    +0.000 C 
ATOM     39  C   UNL     1     -20.690  -6.754 -32.754  0.00  0.00    +0.250 C 
ATOM     40  N   UNL     1     -21.424  -7.368 -31.660  0.00  0.00    -0.350 N 
ATOM     41  H   UNL     1     -22.373  -7.026 -31.661  0.00  0.00    +0.430 HD
BRANCH  31  44
ATOM     42  N   UNL     1     -19.660 -10.597 -31.757  0.00  0.00    -0.700 N 
ATOM     43  H   UNL     1     -20.372 -11.244 -31.634  0.00  0.00    +0.410 HD
ATOM     44  C   UNL     1     -19.952  -9.286 -31.876  0.00  0.00    +0.530 C 
ATOM     45  O   UNL     1     -19.060  -8.478 -32.029  0.00  0.00    -0.530 OA
BRANCH  42  47
ATOM     46  C   UNL     1     -18.051 -12.171 -30.799  0.00  0.00    +0.040 C 
ATOM     47  C   UNL     1     -18.266 -11.045 -31.811  0.00  0.00    +0.170 C 
ATOM     48  C   UNL     1     -17.950 -11.556 -33.218  0.00  0.00    +0.060 C 
ATOM     49  C   UNL     1     -17.340  -9.873 -31.476  0.00  0.00    +0.050 C 
ENDBRANCH  42  47
ENDBRANCH  31  44
ENDBRANCH  30  40
ENDBRANCH  27  30
ENDBRANCH   1  27
BRANCH   1  50
ATOM     50  C   UNL     1     -21.330  -4.607 -29.759  0.00  0.00    +0.060 C 
BRANCH  50  51
ATOM     51  C   UNL     1     -22.308  -3.800 -30.574  0.00  0.00    -0.080 A 
ATOM     52  C   UNL     1     -22.430  -4.029 -31.932  0.00  0.00    +0.000 A 
ATOM     53  C   UNL     1     -23.328  -3.291 -32.680  0.00  0.00    +0.010 A 
ATOM     54  C   UNL     1     -24.103  -2.324 -32.070  0.00  0.00    +0.010 A 
ATOM     55  C   UNL     1     -23.982  -2.095 -30.712  0.00  0.00    +0.010 A 
ATOM     56  C   UNL     1     -23.089  -2.837 -29.963  0.00  0.00    +0.000 A 
ENDBRANCH  50  51
ENDBRANCH   1  50
TORSDOF 14
ENDMDL
MODEL 3
REMARK VINA RESULT:      -8.1     17.668     20.233
REMARK  Name = ZINC000003914596
REMARK  17 active torsions:
REMARK  status: ('A' for Active; 'I' for Inactive)
REMARK    1  A    between atoms: C1_1  and  C2_2
REMARK    2  A    between atoms: C2_2  and  C3_3
REMARK    3  A    between atoms: C2_2  and  C4_4
REMARK    4  A    between atoms: C2_2  and  N5_5
REMARK    5  A    between atoms: C6_6  and  C8_8
REMARK    6  A    between atoms: N20_20  and  C22_22
REMARK    7  A    between atoms: C22_22  and  C23_23
REMARK    8  A    between atoms: C23_23  and  O25_25
REMARK    9  A    between atoms: C23_23  and  C26_26
REMARK   10  A    between atoms: C26_26  and  C28_28
REMARK   11  A    between atoms: C26_26  and  N35_35
REMARK   12  A    between atoms: C28_28  and  C29_29
REMARK   13  A    between atoms: C36_36  and  C38_38
REMARK   14  A    between atoms: C38_38  and  C40_40
REMARK   15  A    between atoms: C38_38  and  N44_44
REMARK   16  A    between atoms: C40_40  and  C41_41
REMARK   17  A    between atoms: C45_45  and  C47_47
REMARK                            x       y       z     vdW  Elec       q    Type
REMARK                         _______ _______ _______ _____ _____    ______ ____
ROOT
ATOM      1  C   UNL     1      -1.470  14.058 -33.425  0.00  0.00    +0.240 C 
ENDROOT
BRANCH   1   2
ATOM      2  N   UNL     1      -2.747  14.775 -33.455  0.00  0.00    -0.730 N 
ATOM      3  H   UNL     1      -3.537  14.376 -33.058  0.00  0.00    +0.400 HD
ATOM      4  C   UNL     1      -2.825  15.990 -34.036  0.00  0.00    +0.520 C 
ATOM      5  O   UNL     1      -1.838  16.489 -34.532  0.00  0.00    -0.480 OA
BRANCH   4   6
ATOM      6  C   UNL     1      -4.139  16.727 -34.066  0.00  0.00    +0.270 C 
BRANCH   6   7
ATOM      7  N   UNL     1      -4.470  17.189 -32.716  0.00  0.00    -0.680 N 
ATOM      8  H   UNL     1      -4.097  18.020 -32.382  0.00  0.00    +0.430 HD
ATOM      9  C   UNL     1      -5.293  16.459 -31.936  0.00  0.00    +0.580 C 
ATOM     10  O   UNL     1      -5.688  15.376 -32.318  0.00  0.00    -0.530 OA
BRANCH   9  11
ATOM     11  C   UNL     1      -5.716  16.980 -30.614  0.00  0.00    +0.110 A 
ATOM     12  C   UNL     1      -5.969  18.351 -30.467  0.00  0.00    +0.020 A 
ATOM     13  C   UNL     1      -6.360  18.843 -29.254  0.00  0.00    +0.090 A 
ATOM     14  C   UNL     1      -6.495  17.942 -28.182  0.00  0.00    -0.080 A 
ATOM     15  C   UNL     1      -6.892  18.379 -26.908  0.00  0.00    +0.040 A 
ATOM     16  C   UNL     1      -7.012  17.478 -25.894  0.00  0.00    +0.030 A 
ATOM     17  C   UNL     1      -6.745  16.126 -26.103  0.00  0.00    +0.030 A 
ATOM     18  C   UNL     1      -6.358  15.666 -27.322  0.00  0.00    +0.050 A 
ATOM     19  C   UNL     1      -6.222  16.566 -28.397  0.00  0.00    +0.120 A 
ATOM     20  N   UNL     1      -5.849  16.142 -29.605  0.00  0.00    -0.430 NA
ENDBRANCH   9  11
ENDBRANCH   6   7
BRANCH   6  21
ATOM     21  C   UNL     1      -4.027  17.930 -35.004  0.00  0.00    +0.060 C 
BRANCH  21  22
ATOM     22  C   UNL     1      -5.385  18.249 -35.576  0.00  0.00    +0.510 C 
ATOM     23  O   UNL     1      -6.380  18.089 -34.901  0.00  0.00    -0.520 OA
ATOM     24  N   UNL     1      -5.493  18.712 -36.837  0.00  0.00    -0.860 N 
ATOM     25  H   UNL     1      -6.367  18.917 -37.205  0.00  0.00    +0.400 HD
ATOM     26  H   UNL     1      -4.698  18.840 -37.376  0.00  0.00    +0.400 HD
ENDBRANCH  21  22
ENDBRANCH   6  21
ENDBRANCH   4   6
ENDBRANCH   1   2
BRANCH   1  27
ATOM     27  C   UNL     1      -1.473  12.965 -34.495  0.00  0.00    +0.210 C 
BRANCH  27  28
ATOM     28  O   UNL     1      -0.937  11.759 -33.945  0.00  0.00    -0.550 OA
ATOM     29  H   UNL     1      -0.051  11.542 -34.262  0.00  0.00    +0.390 HD
ENDBRANCH  27  28
BRANCH  27  30
ATOM     30  C   UNL     1      -0.614  13.410 -35.681  0.00  0.00    +0.240 C 
BRANCH  30  40
ATOM     31  C   UNL     1      -2.493  13.152 -37.125  0.00  0.00    +0.160 C 
ATOM     32  C   UNL     1      -3.425  13.852 -38.116  0.00  0.00    +0.100 C 
ATOM     33  C   UNL     1      -2.606  14.333 -39.320  0.00  0.00    +0.010 C 
ATOM     34  C   UNL     1      -2.000  13.119 -40.027  0.00  0.00    +0.010 C 
ATOM     35  C   UNL     1      -1.147  13.586 -41.207  0.00  0.00    +0.020 C 
ATOM     36  C   UNL     1      -0.020  14.487 -40.697  0.00  0.00    +0.010 C 
ATOM     37  C   UNL     1      -0.624  15.705 -39.995  0.00  0.00    +0.040 C 
ATOM     38  C   UNL     1      -1.495  15.260 -38.820  0.00  0.00    +0.000 C 
ATOM     39  C   UNL     1      -0.648  14.486 -37.809  0.00  0.00    +0.250 C 
ATOM     40  N   UNL     1      -1.461  14.091 -36.670  0.00  0.00    -0.350 N 
ATOM     41  H   UNL     1      -1.872  14.911 -36.252  0.00  0.00    +0.430 HD
BRANCH  31  44
ATOM     42  N   UNL     1      -2.571  10.888 -38.118  0.00  0.00    -0.700 N 
ATOM     43  H   UNL     1      -3.519  10.866 -37.915  0.00  0.00    +0.410 HD
ATOM     44  C   UNL     1      -1.838  11.974 -37.797  0.00  0.00    +0.530 C 
ATOM     45  O   UNL     1      -0.653  12.001 -38.050  0.00  0.00    -0.530 OA
BRANCH  42  47
ATOM     46  C   UNL     1      -2.969   8.995 -39.614  0.00  0.00    +0.040 C 
ATOM     47  C   UNL     1      -1.934   9.743 -38.772  0.00  0.00    +0.170 C 
ATOM     48  C   UNL     1      -0.802  10.236 -39.675  0.00  0.00    +0.060 C 
ATOM     49  C   UNL     1      -1.364   8.800 -37.710  0.00  0.00    +0.050 C 
ENDBRANCH  42  47
ENDBRANCH  31  44
ENDBRANCH  30  40
ENDBRANCH  27  30
ENDBRANCH   1  27
BRANCH   1  50
ATOM     50  C   UNL     1      -1.274  13.424 -32.047  0.00  0.00    +0.060 C 
BRANCH  50  51
ATOM     51  C   UNL     1      -0.055  14.016 -31.388  0.00  0.00    -0.080 A 
ATOM     52  C   UNL     1       1.067  14.306 -32.143  0.00  0.00    +0.000 A 
ATOM     53  C   UNL     1       2.184  14.850 -31.538  0.00  0.00    +0.010 A 
ATOM     54  C   UNL     1       2.181  15.104 -30.181  0.00  0.00    +0.010 A 
ATOM     55  C   UNL     1       1.059  14.815 -29.426  0.00  0.00    +0.010 A 
ATOM     56  C   UNL     1      -0.061  14.276 -30.031  0.00  0.00    +0.000 A 
ENDBRANCH  50  51
ENDBRANCH   1  50
TORSDOF 14
ENDMDL
MODEL 4
REMARK VINA RESULT:      -8.1      2.908      5.816
REMARK  Name = ZINC000003914596
REMARK  17 active torsions:
REMARK  status: ('A' for Active; 'I' for Inactive)
REMARK    1  A    between atoms: C1_1  and  C2_2
REMARK    2  A    between atoms: C2_2  and  C3_3
REMARK    3  A    between atoms: C2_2  and  C4_4
REMARK    4  A    between atoms: C2_2  and  N5_5
REMARK    5  A    between atoms: C6_6  and  C8_8
REMARK    6  A    between atoms: N20_20  and  C22_22
REMARK    7  A    between atoms: C22_22  and  C23_23
REMARK    8  A    between atoms: C23_23  and  O25_25
REMARK    9  A    between atoms: C23_23  and  C26_26
REMARK   10  A    between atoms: C26_26  and  C28_28
REMARK   11  A    between atoms: C26_26  and  N35_35
REMARK   12  A    between atoms: C28_28  and  C29_29
REMARK   13  A    between atoms: C36_36  and  C38_38
REMARK   14  A    between atoms: C38_38  and  C40_40
REMARK   15  A    between atoms: C38_38  and  N44_44
REMARK   16  A    between atoms: C40_40  and  C41_41
REMARK   17  A    between atoms: C45_45  and  C47_47
REMARK                            x       y       z     vdW  Elec       q    Type
REMARK                         _______ _______ _______ _____ _____    ______ ____
ROOT
ATOM      1  C   UNL     1       5.265  -2.696 -33.195  0.00  0.00    +0.240 C 
ENDROOT
BRANCH   1   2
ATOM      2  N   UNL     1       4.282  -3.044 -34.224  0.00  0.00    -0.730 N 
ATOM      3  H   UNL     1       4.541  -3.603 -34.973  0.00  0.00    +0.400 HD
ATOM      4  C   UNL     1       3.018  -2.586 -34.131  0.00  0.00    +0.520 C 
ATOM      5  O   UNL     1       2.693  -1.887 -33.194  0.00  0.00    -0.480 OA
BRANCH   4   6
ATOM      6  C   UNL     1       2.007  -2.945 -35.189  0.00  0.00    +0.270 C 
BRANCH   6   7
ATOM      7  N   UNL     1       2.554  -3.998 -36.049  0.00  0.00    -0.680 N 
ATOM      8  H   UNL     1       2.768  -4.866 -35.676  0.00  0.00    +0.430 HD
ATOM      9  C   UNL     1       2.759  -3.758 -37.360  0.00  0.00    +0.580 C 
ATOM     10  O   UNL     1       2.576  -2.645 -37.810  0.00  0.00    -0.530 OA
BRANCH   9  11
ATOM     11  C   UNL     1       3.208  -4.854 -38.251  0.00  0.00    +0.110 A 
ATOM     12  C   UNL     1       2.354  -5.943 -38.482  0.00  0.00    +0.020 A 
ATOM     13  C   UNL     1       2.756  -6.959 -39.302  0.00  0.00    +0.090 A 
ATOM     14  C   UNL     1       4.029  -6.874 -39.893  0.00  0.00    -0.080 A 
ATOM     15  C   UNL     1       4.506  -7.882 -40.746  0.00  0.00    +0.040 A 
ATOM     16  C   UNL     1       5.744  -7.766 -41.300  0.00  0.00    +0.030 A 
ATOM     17  C   UNL     1       6.548  -6.658 -41.033  0.00  0.00    +0.030 A 
ATOM     18  C   UNL     1       6.120  -5.663 -40.211  0.00  0.00    +0.050 A 
ATOM     19  C   UNL     1       4.845  -5.745 -39.618  0.00  0.00    +0.120 A 
ATOM     20  N   UNL     1       4.399  -4.781 -38.814  0.00  0.00    -0.430 NA
ENDBRANCH   9  11
ENDBRANCH   6   7
BRANCH   6  21
ATOM     21  C   UNL     1       0.725  -3.447 -34.522  0.00  0.00    +0.060 C 
BRANCH  21  22
ATOM     22  C   UNL     1      -0.465  -3.057 -35.362  0.00  0.00    +0.510 C 
ATOM     23  O   UNL     1      -0.317  -2.329 -36.320  0.00  0.00    -0.520 OA
ATOM     24  N   UNL     1      -1.691  -3.519 -35.048  0.00  0.00    -0.860 N 
ATOM     25  H   UNL     1      -2.456  -3.268 -35.588  0.00  0.00    +0.400 HD
ATOM     26  H   UNL     1      -1.809  -4.102 -34.282  0.00  0.00    +0.400 HD
ENDBRANCH  21  22
ENDBRANCH   6  21
ENDBRANCH   4   6
ENDBRANCH   1   2
BRANCH   1  27
ATOM     27  C   UNL     1       6.574  -2.270 -33.863  0.00  0.00    +0.210 C 
BRANCH  27  28
ATOM     28  O   UNL     1       6.722  -0.852 -33.759  0.00  0.00    -0.550 OA
ATOM     29  H   UNL     1       6.192  -0.353 -34.395  0.00  0.00    +0.390 HD
ENDBRANCH  27  28
BRANCH  27  30
ATOM     30  C   UNL     1       6.548  -2.672 -35.338  0.00  0.00    +0.240 C 
BRANCH  30  40
ATOM     31  C   UNL     1       7.837  -4.034 -36.810  0.00  0.00    +0.160 C 
ATOM     32  C   UNL     1       9.240  -4.345 -37.334  0.00  0.00    +0.100 C 
ATOM     33  C   UNL     1      10.112  -4.833 -36.170  0.00  0.00    +0.010 C 
ATOM     34  C   UNL     1       9.522  -6.132 -35.617  0.00  0.00    +0.010 C 
ATOM     35  C   UNL     1      10.359  -6.611 -34.430  0.00  0.00    +0.020 C 
ATOM     36  C   UNL     1      10.345  -5.543 -33.333  0.00  0.00    +0.010 C 
ATOM     37  C   UNL     1      10.940  -4.245 -33.883  0.00  0.00    +0.040 C 
ATOM     38  C   UNL     1      10.127  -3.757 -35.082  0.00  0.00    +0.000 C 
ATOM     39  C   UNL     1       8.683  -3.488 -34.658  0.00  0.00    +0.250 C 
ATOM     40  N   UNL     1       7.912  -2.989 -35.784  0.00  0.00    -0.350 N 
ATOM     41  H   UNL     1       8.349  -2.154 -36.144  0.00  0.00    +0.430 HD
BRANCH  31  44
ATOM     42  N   UNL     1       6.860  -6.298 -37.015  0.00  0.00    -0.700 N 
ATOM     43  H   UNL     1       6.975  -6.227 -37.975  0.00  0.00    +0.410 HD
ATOM     44  C   UNL     1       7.236  -5.280 -36.214  0.00  0.00    +0.530 C 
ATOM     45  O   UNL     1       7.090  -5.369 -35.013  0.00  0.00    -0.530 OA
BRANCH  42  47
ATOM     46  C   UNL     1       4.855  -7.211 -35.954  0.00  0.00    +0.040 C 
ATOM     47  C   UNL     1       6.276  -7.509 -36.434  0.00  0.00    +0.170 C 
ATOM     48  C   UNL     1       6.235  -8.613 -37.493  0.00  0.00    +0.060 C 
ATOM     49  C   UNL     1       7.129  -7.970 -35.251  0.00  0.00    +0.050 C 
ENDBRANCH  42  47
ENDBRANCH  31  44
ENDBRANCH  30  40
ENDBRANCH  27  30
ENDBRANCH   1  27
BRANCH   1  50
ATOM     50  C   UNL     1       5.520  -3.911 -32.302  0.00  0.00    +0.060 C 
BRANCH  50  51
ATOM     51  C   UNL     1       4.608  -3.855 -31.103  0.00  0.00    -0.080 A 
ATOM     52  C   UNL     1       4.886  -2.988 -30.063  0.00  0.00    +0.000 A 
ATOM     53  C   UNL     1       4.049  -2.935 -28.964  0.00  0.00    +0.010 A 
ATOM     54  C   UNL     1       2.935  -3.750 -28.905  0.00  0.00    +0.010 A 
ATOM     55  C   UNL     1       2.656  -4.616 -29.946  0.00  0.00    +0.010 A 
ATOM     56  C   UNL     1       3.489  -4.665 -31.047  0.00  0.00    +0.000 A 
ENDBRANCH  50  51
ENDBRANCH   1  50
TORSDOF 14
ENDMDL
MODEL 5
REMARK VINA RESULT:      -8.0      3.670      9.559
REMARK  Name = ZINC000003914596
REMARK  17 active torsions:
REMARK  status: ('A' for Active; 'I' for Inactive)
REMARK    1  A    between atoms: C1_1  and  C2_2
REMARK    2  A    between atoms: C2_2  and  C3_3
REMARK    3  A    between atoms: C2_2  and  C4_4
REMARK    4  A    between atoms: C2_2  and  N5_5
REMARK    5  A    between atoms: C6_6  and  C8_8
REMARK    6  A    between atoms: N20_20  and  C22_22
REMARK    7  A    between atoms: C22_22  and  C23_23
REMARK    8  A    between atoms: C23_23  and  O25_25
REMARK    9  A    between atoms: C23_23  and  C26_26
REMARK   10  A    between atoms: C26_26  and  C28_28
REMARK   11  A    between atoms: C26_26  and  N35_35
REMARK   12  A    between atoms: C28_28  and  C29_29
REMARK   13  A    between atoms: C36_36  and  C38_38
REMARK   14  A    between atoms: C38_38  and  C40_40
REMARK   15  A    between atoms: C38_38  and  N44_44
REMARK   16  A    between atoms: C40_40  and  C41_41
REMARK   17  A    between atoms: C45_45  and  C47_47
REMARK                            x       y       z     vdW  Elec       q    Type
REMARK                         _______ _______ _______ _____ _____    ______ ____
ROOT
ATOM      1  C   UNL     1       2.370  -1.964 -29.512  0.00  0.00    +0.240 C 
ENDROOT
BRANCH   1   2
ATOM      2  N   UNL     1       2.627  -1.503 -30.879  0.00  0.00    -0.730 N 
ATOM      3  H   UNL     1       3.149  -0.700 -31.030  0.00  0.00    +0.400 HD
ATOM      4  C   UNL     1       2.137  -2.196 -31.927  0.00  0.00    +0.520 C 
ATOM      5  O   UNL     1       1.486  -3.201 -31.739  0.00  0.00    -0.480 OA
BRANCH   4   6
ATOM      6  C   UNL     1       2.402  -1.722 -33.333  0.00  0.00    +0.270 C 
BRANCH   6   7
ATOM      7  N   UNL     1       3.613  -2.368 -33.845  0.00  0.00    -0.680 N 
ATOM      8  H   UNL     1       3.546  -3.178 -34.372  0.00  0.00    +0.430 HD
ATOM      9  C   UNL     1       4.824  -1.834 -33.582  0.00  0.00    +0.580 C 
ATOM     10  O   UNL     1       4.916  -0.871 -32.847  0.00  0.00    -0.530 OA
BRANCH   9  11
ATOM     11  C   UNL     1       6.041  -2.423 -34.190  0.00  0.00    +0.110 A 
ATOM     12  C   UNL     1       7.171  -2.640 -33.389  0.00  0.00    +0.020 A 
ATOM     13  C   UNL     1       8.298  -3.183 -33.937  0.00  0.00    +0.090 A 
ATOM     14  C   UNL     1       8.283  -3.509 -35.305  0.00  0.00    -0.080 A 
ATOM     15  C   UNL     1       9.407  -4.069 -35.934  0.00  0.00    +0.040 A 
ATOM     16  C   UNL     1       9.355  -4.371 -37.260  0.00  0.00    +0.030 A 
ATOM     17  C   UNL     1       8.202  -4.131 -38.005  0.00  0.00    +0.030 A 
ATOM     18  C   UNL     1       7.095  -3.589 -37.431  0.00  0.00    +0.050 A 
ATOM     19  C   UNL     1       7.107  -3.263 -36.061  0.00  0.00    +0.120 A 
ATOM     20  N   UNL     1       6.034  -2.736 -35.472  0.00  0.00    -0.430 NA
ENDBRANCH   9  11
ENDBRANCH   6   7
BRANCH   6  21
ATOM     21  C   UNL     1       1.214  -2.086 -34.226  0.00  0.00    +0.060 C 
BRANCH  21  22
ATOM     22  C   UNL     1       1.661  -3.065 -35.281  0.00  0.00    +0.510 C 
ATOM     23  O   UNL     1       1.857  -4.225 -34.987  0.00  0.00    -0.520 OA
ATOM     24  N   UNL     1       1.843  -2.652 -36.551  0.00  0.00    -0.860 N 
ATOM     25  H   UNL     1       2.130  -3.282 -37.230  0.00  0.00    +0.400 HD
ATOM     26  H   UNL     1       1.685  -1.724 -36.786  0.00  0.00    +0.400 HD
ENDBRANCH  21  22
ENDBRANCH   6  21
ENDBRANCH   4   6
ENDBRANCH   1   2
BRANCH   1  27
ATOM     27  C   UNL     1       1.909  -0.784 -28.654  0.00  0.00    +0.210 C 
BRANCH  27  28
ATOM     28  O   UNL     1       2.990   0.137 -28.492  0.00  0.00    -0.550 OA
ATOM     29  H   UNL     1       3.853  -0.284 -28.385  0.00  0.00    +0.390 HD
ENDBRANCH  27  28
BRANCH  27  30
ATOM     30  C   UNL     1       1.464  -1.294 -27.283  0.00  0.00    +0.240 C 
BRANCH  30  40
ATOM     31  C   UNL     1      -0.686  -1.329 -26.255  0.00  0.00    +0.160 C 
ATOM     32  C   UNL     1      -2.126  -1.837 -26.362  0.00  0.00    +0.100 C 
ATOM     33  C   UNL     1      -2.120  -3.369 -26.329  0.00  0.00    +0.010 C 
ATOM     34  C   UNL     1      -1.560  -3.837 -24.984  0.00  0.00    +0.010 C 
ATOM     35  C   UNL     1      -1.511  -5.365 -24.951  0.00  0.00    +0.020 C 
ATOM     36  C   UNL     1      -0.606  -5.870 -26.077  0.00  0.00    +0.010 C 
ATOM     37  C   UNL     1      -1.168  -5.409 -27.424  0.00  0.00    +0.040 C 
ATOM     38  C   UNL     1      -1.241  -3.883 -27.472  0.00  0.00    +0.000 C 
ATOM     39  C   UNL     1       0.158  -3.289 -27.300  0.00  0.00    +0.250 C 
ATOM     40  N   UNL     1       0.103  -1.839 -27.382  0.00  0.00    -0.350 N 
ATOM     41  H   UNL     1      -0.303  -1.569 -28.264  0.00  0.00    +0.430 HD
BRANCH  31  44
ATOM     42  N   UNL     1       1.136  -2.389 -24.961  0.00  0.00    -0.700 N 
ATOM     43  H   UNL     1       1.621  -2.500 -25.794  0.00  0.00    +0.410 HD
ATOM     44  C   UNL     1      -0.080  -1.807 -24.961  0.00  0.00    +0.530 C 
ATOM     45  O   UNL     1      -0.686  -1.667 -23.919  0.00  0.00    -0.530 OA
BRANCH  42  47
ATOM     46  C   UNL     1       1.781  -4.381 -23.698  0.00  0.00    +0.040 C 
ATOM     47  C   UNL     1       1.725  -2.852 -23.703  0.00  0.00    +0.170 C 
ATOM     48  C   UNL     1       3.142  -2.290 -23.566  0.00  0.00    +0.060 C 
ATOM     49  C   UNL     1       0.870  -2.369 -22.530  0.00  0.00    +0.050 C 
ENDBRANCH  42  47
ENDBRANCH  31  44
ENDBRANCH  30  40
ENDBRANCH  27  30
ENDBRANCH   1  27
BRANCH   1  50
ATOM     50  C   UNL     1       3.653  -2.553 -28.924  0.00  0.00    +0.060 C 
BRANCH  50  51
ATOM     51  C   UNL     1       3.384  -3.950 -28.426  0.00  0.00    -0.080 A 
ATOM     52  C   UNL     1       2.784  -4.877 -29.258  0.00  0.00    +0.000 A 
ATOM     53  C   UNL     1       2.538  -6.158 -28.802  0.00  0.00    +0.010 A 
ATOM     54  C   UNL     1       2.892  -6.512 -27.514  0.00  0.00    +0.010 A 
ATOM     55  C   UNL     1       3.493  -5.586 -26.683  0.00  0.00    +0.010 A 
ATOM     56  C   UNL     1       3.744  -4.306 -27.140  0.00  0.00    +0.000 A 
ENDBRANCH  50  51
ENDBRANCH   1  50
TORSDOF 14
ENDMDL
MODEL 6
REMARK VINA RESULT:      -8.0     21.722     26.018
REMARK  Name = ZINC000003914596
REMARK  17 active torsions:
REMARK  status: ('A' for Active; 'I' for Inactive)
REMARK    1  A    between atoms: C1_1  and  C2_2
REMARK    2  A    between atoms: C2_2  and  C3_3
REMARK    3  A    between atoms: C2_2  and  C4_4
REMARK    4  A    between atoms: C2_2  and  N5_5
REMARK    5  A    between atoms: C6_6  and  C8_8
REMARK    6  A    between atoms: N20_20  and  C22_22
REMARK    7  A    between atoms: C22_22  and  C23_23
REMARK    8  A    between atoms: C23_23  and  O25_25
REMARK    9  A    between atoms: C23_23  and  C26_26
REMARK   10  A    between atoms: C26_26  and  C28_28
REMARK   11  A    between atoms: C26_26  and  N35_35
REMARK   12  A    between atoms: C28_28  and  C29_29
REMARK   13  A    between atoms: C36_36  and  C38_38
REMARK   14  A    between atoms: C38_38  and  C40_40
REMARK   15  A    between atoms: C38_38  and  N44_44
REMARK   16  A    between atoms: C40_40  and  C41_41
REMARK   17  A    between atoms: C45_45  and  C47_47
REMARK                            x       y       z     vdW  Elec       q    Type
REMARK                         _______ _______ _______ _____ _____    ______ ____
ROOT
ATOM      1  C   UNL     1     -21.790  -5.829 -28.802  0.00  0.00    +0.240 C 
ENDROOT
BRANCH   1   2
ATOM      2  N   UNL     1     -21.405  -5.531 -27.420  0.00  0.00    -0.730 N 
ATOM      3  H   UNL     1     -20.505  -5.724 -27.115  0.00  0.00    +0.400 HD
ATOM      4  C   UNL     1     -22.302  -4.987 -26.572  0.00  0.00    +0.520 C 
ATOM      5  O   UNL     1     -23.427  -4.743 -26.954  0.00  0.00    -0.480 OA
BRANCH   4   6
ATOM      6  C   UNL     1     -21.904  -4.680 -25.152  0.00  0.00    +0.270 C 
BRANCH   6   7
ATOM      7  N   UNL     1     -22.948  -5.155 -24.240  0.00  0.00    -0.680 N 
ATOM      8  H   UNL     1     -23.148  -6.102 -24.182  0.00  0.00    +0.430 HD
ATOM      9  C   UNL     1     -23.632  -4.274 -23.481  0.00  0.00    +0.580 C 
ATOM     10  O   UNL     1     -23.446  -3.082 -23.618  0.00  0.00    -0.530 OA
BRANCH   9  11
ATOM     11  C   UNL     1     -24.611  -4.762 -22.480  0.00  0.00    +0.110 A 
ATOM     12  C   UNL     1     -25.982  -4.591 -22.723  0.00  0.00    +0.020 A 
ATOM     13  C   UNL     1     -26.893  -5.037 -21.809  0.00  0.00    +0.090 A 
ATOM     14  C   UNL     1     -26.417  -5.660 -20.642  0.00  0.00    -0.080 A 
ATOM     15  C   UNL     1     -27.298  -6.142 -19.660  0.00  0.00    +0.040 A 
ATOM     16  C   UNL     1     -26.799  -6.739 -18.543  0.00  0.00    +0.030 A 
ATOM     17  C   UNL     1     -25.425  -6.880 -18.358  0.00  0.00    +0.030 A 
ATOM     18  C   UNL     1     -24.541  -6.426 -19.286  0.00  0.00    +0.050 A 
ATOM     19  C   UNL     1     -25.017  -5.802 -20.456  0.00  0.00    +0.120 A 
ATOM     20  N   UNL     1     -24.173  -5.352 -21.385  0.00  0.00    -0.430 NA
ENDBRANCH   9  11
ENDBRANCH   6   7
BRANCH   6  21
ATOM     21  C   UNL     1     -20.586  -5.385 -24.827  0.00  0.00    +0.060 C 
BRANCH  21  22
ATOM     22  C   UNL     1     -19.634  -4.402 -24.194  0.00  0.00    +0.510 C 
ATOM     23  O   UNL     1     -20.032  -3.632 -23.345  0.00  0.00    -0.520 OA
ATOM     24  N   UNL     1     -18.340  -4.378 -24.572  0.00  0.00    -0.860 N 
ATOM     25  H   UNL     1     -17.728  -3.746 -24.165  0.00  0.00    +0.400 HD
ATOM     26  H   UNL     1     -18.022  -4.994 -25.250  0.00  0.00    +0.400 HD
ENDBRANCH  21  22
ENDBRANCH   6  21
ENDBRANCH   4   6
ENDBRANCH   1   2
BRANCH   1  27
ATOM     27  C   UNL     1     -21.427  -7.277 -29.131  0.00  0.00    +0.210 C 
BRANCH  27  28
ATOM     28  O   UNL     1     -20.742  -7.861 -28.021  0.00  0.00    -0.550 OA
ATOM     29  H   UNL     1     -21.174  -8.647 -27.661  0.00  0.00    +0.390 HD
ENDBRANCH  27  28
BRANCH  27  30
ATOM     30  C   UNL     1     -20.521  -7.308 -30.363  0.00  0.00    +0.240 C 
BRANCH  30  40
ATOM     31  C   UNL     1     -19.321  -8.714 -31.869  0.00  0.00    +0.160 C 
ATOM     32  C   UNL     1     -19.018 -10.158 -32.274  0.00  0.00    +0.100 C 
ATOM     33  C   UNL     1     -20.317 -10.834 -32.728  0.00  0.00    +0.010 C 
ATOM     34  C   UNL     1     -20.853 -10.106 -33.963  0.00  0.00    +0.010 C 
ATOM     35  C   UNL     1     -22.170 -10.745 -34.405  0.00  0.00    +0.020 C 
ATOM     36  C   UNL     1     -23.193 -10.636 -33.272  0.00  0.00    +0.010 C 
ATOM     37  C   UNL     1     -22.663 -11.369 -32.038  0.00  0.00    +0.040 C 
ATOM     38  C   UNL     1     -21.337 -10.756 -31.588  0.00  0.00    +0.000 C 
ATOM     39  C   UNL     1     -21.539  -9.283 -31.230  0.00  0.00    +0.250 C 
ATOM     40  N   UNL     1     -20.290  -8.702 -30.767  0.00  0.00    -0.350 N 
ATOM     41  H   UNL     1     -19.950  -9.228 -29.976  0.00  0.00    +0.430 HD
BRANCH  31  44
ATOM     42  N   UNL     1     -19.112  -7.678 -34.106  0.00  0.00    -0.700 N 
ATOM     43  H   UNL     1     -18.179  -7.944 -34.107  0.00  0.00    +0.410 HD
ATOM     44  C   UNL     1     -19.895  -7.971 -33.048  0.00  0.00    +0.530 C 
ATOM     45  O   UNL     1     -21.061  -7.638 -33.047  0.00  0.00    -0.530 OA
BRANCH  42  47
ATOM     46  C   UNL     1     -20.816  -6.061 -34.783  0.00  0.00    +0.040 C 
ATOM     47  C   UNL     1     -19.669  -6.957 -35.252  0.00  0.00    +0.170 C 
ATOM     48  C   UNL     1     -18.578  -6.096 -35.893  0.00  0.00    +0.060 C 
ATOM     49  C   UNL     1     -20.194  -7.961 -36.280  0.00  0.00    +0.050 C 
ENDBRANCH  42  47
ENDBRANCH  31  44
ENDBRANCH  30  40
ENDBRANCH  27  30
ENDBRANCH   1  27
BRANCH   1  50
ATOM     50  C   UNL     1     -21.048  -4.887 -29.752  0.00  0.00    +0.060 C 
BRANCH  50  51
ATOM     51  C   UNL     1     -22.045  -4.059 -30.521  0.00  0.00    -0.080 A 
ATOM     52  C   UNL     1     -22.777  -3.080 -29.873  0.00  0.00    +0.000 A 
ATOM     53  C   UNL     1     -23.690  -2.320 -30.579  0.00  0.00    +0.010 A 
ATOM     54  C   UNL     1     -23.872  -2.538 -31.931  0.00  0.00    +0.010 A 
ATOM     55  C   UNL     1     -23.140  -3.515 -32.579  0.00  0.00    +0.010 A 
ATOM     56  C   UNL     1     -22.223  -4.272 -31.875  0.00  0.00    +0.000 A 
ENDBRANCH  50  51
ENDBRANCH   1  50
TORSDOF 14
ENDMDL
MODEL 7
REMARK VINA RESULT:      -7.8      4.693     10.135
REMARK  Name = ZINC000003914596
REMARK  17 active torsions:
REMARK  status: ('A' for Active; 'I' for Inactive)
REMARK    1  A    between atoms: C1_1  and  C2_2
REMARK    2  A    between atoms: C2_2  and  C3_3
REMARK    3  A    between atoms: C2_2  and  C4_4
REMARK    4  A    between atoms: C2_2  and  N5_5
REMARK    5  A    between atoms: C6_6  and  C8_8
REMARK    6  A    between atoms: N20_20  and  C22_22
REMARK    7  A    between atoms: C22_22  and  C23_23
REMARK    8  A    between atoms: C23_23  and  O25_25
REMARK    9  A    between atoms: C23_23  and  C26_26
REMARK   10  A    between atoms: C26_26  and  C28_28
REMARK   11  A    between atoms: C26_26  and  N35_35
REMARK   12  A    between atoms: C28_28  and  C29_29
REMARK   13  A    between atoms: C36_36  and  C38_38
REMARK   14  A    between atoms: C38_38  and  C40_40
REMARK   15  A    between atoms: C38_38  and  N44_44
REMARK   16  A    between atoms: C40_40  and  C41_41
REMARK   17  A    between atoms: C45_45  and  C47_47
REMARK                            x       y       z     vdW  Elec       q    Type
REMARK                         _______ _______ _______ _____ _____    ______ ____
ROOT
ATOM      1  C   UNL     1       2.973  -2.938 -28.278  0.00  0.00    +0.240 C 
ENDROOT
BRANCH   1   2
ATOM      2  N   UNL     1       3.449  -3.201 -26.917  0.00  0.00    -0.730 N 
ATOM      3  H   UNL     1       4.202  -2.703 -26.562  0.00  0.00    +0.400 HD
ATOM      4  C   UNL     1       2.840  -4.135 -26.159  0.00  0.00    +0.520 C 
ATOM      5  O   UNL     1       1.899  -4.757 -26.602  0.00  0.00    -0.480 OA
BRANCH   4   6
ATOM      6  C   UNL     1       3.330  -4.404 -24.759  0.00  0.00    +0.270 C 
BRANCH   6   7
ATOM      7  N   UNL     1       3.747  -3.145 -24.138  0.00  0.00    -0.680 N 
ATOM      8  H   UNL     1       3.377  -2.305 -24.447  0.00  0.00    +0.430 HD
ATOM      9  C   UNL     1       4.648  -3.155 -23.134  0.00  0.00    +0.580 C 
ATOM     10  O   UNL     1       5.180  -4.197 -22.806  0.00  0.00    -0.530 OA
BRANCH   9  11
ATOM     11  C   UNL     1       4.988  -1.895 -22.431  0.00  0.00    +0.110 A 
ATOM     12  C   UNL     1       4.184  -1.467 -21.365  0.00  0.00    +0.020 A 
ATOM     13  C   UNL     1       4.487  -0.308 -20.709  0.00  0.00    +0.090 A 
ATOM     14  C   UNL     1       5.611   0.424 -21.134  0.00  0.00    -0.080 A 
ATOM     15  C   UNL     1       5.980   1.624 -20.505  0.00  0.00    +0.040 A 
ATOM     16  C   UNL     1       7.074   2.305 -20.944  0.00  0.00    +0.030 A 
ATOM     17  C   UNL     1       7.835   1.828 -22.011  0.00  0.00    +0.030 A 
ATOM     18  C   UNL     1       7.508   0.670 -22.644  0.00  0.00    +0.050 A 
ATOM     19  C   UNL     1       6.383  -0.064 -22.220  0.00  0.00    +0.120 A 
ATOM     20  N   UNL     1       6.042  -1.205 -22.820  0.00  0.00    -0.430 NA
ENDBRANCH   9  11
ENDBRANCH   6   7
BRANCH   6  21
ATOM     21  C   UNL     1       2.202  -5.030 -23.936  0.00  0.00    +0.060 C 
BRANCH  21  22
ATOM     22  C   UNL     1       2.533  -6.472 -23.646  0.00  0.00    +0.510 C 
ATOM     23  O   UNL     1       1.667  -7.319 -23.718  0.00  0.00    -0.520 OA
ATOM     24  N   UNL     1       3.790  -6.820 -23.307  0.00  0.00    -0.860 N 
ATOM     25  H   UNL     1       4.002  -7.748 -23.121  0.00  0.00    +0.400 HD
ATOM     26  H   UNL     1       4.482  -6.143 -23.250  0.00  0.00    +0.400 HD
ENDBRANCH  21  22
ENDBRANCH   6  21
ENDBRANCH   4   6
ENDBRANCH   1   2
BRANCH   1  27
ATOM     27  C   UNL     1       4.146  -3.028 -29.255  0.00  0.00    +0.210 C 
BRANCH  27  28
ATOM     28  O   UNL     1       5.141  -2.067 -28.894  0.00  0.00    -0.550 OA
ATOM     29  H   UNL     1       4.789  -1.285 -28.450  0.00  0.00    +0.390 HD
ENDBRANCH  27  28
BRANCH  27  30
ATOM     30  C   UNL     1       3.652  -2.742 -30.674  0.00  0.00    +0.240 C 
BRANCH  30  40
ATOM     31  C   UNL     1       4.348  -1.884 -32.785  0.00  0.00    +0.160 C 
ATOM     32  C   UNL     1       5.539  -1.635 -33.713  0.00  0.00    +0.100 C 
ATOM     33  C   UNL     1       6.172  -2.980 -34.087  0.00  0.00    +0.010 C 
ATOM     34  C   UNL     1       5.149  -3.817 -34.857  0.00  0.00    +0.010 C 
ATOM     35  C   UNL     1       5.754  -5.178 -35.202  0.00  0.00    +0.020 C 
ATOM     36  C   UNL     1       6.134  -5.908 -33.912  0.00  0.00    +0.010 C 
ATOM     37  C   UNL     1       7.163  -5.076 -33.144  0.00  0.00    +0.040 C 
ATOM     38  C   UNL     1       6.584  -3.704 -32.802  0.00  0.00    +0.000 C 
ATOM     39  C   UNL     1       5.340  -3.867 -31.928  0.00  0.00    +0.250 C 
ATOM     40  N   UNL     1       4.804  -2.564 -31.568  0.00  0.00    -0.350 N 
ATOM     41  H   UNL     1       5.516  -2.029 -31.095  0.00  0.00    +0.430 HD
BRANCH  31  44
ATOM     42  N   UNL     1       2.539  -2.210 -34.441  0.00  0.00    -0.700 N 
ATOM     43  H   UNL     1       2.621  -1.271 -34.669  0.00  0.00    +0.410 HD
ATOM     44  C   UNL     1       3.333  -2.745 -33.491  0.00  0.00    +0.530 C 
ATOM     45  O   UNL     1       3.230  -3.919 -33.206  0.00  0.00    -0.530 OA
BRANCH  42  47
ATOM     46  C   UNL     1       2.243  -3.850 -36.230  0.00  0.00    +0.040 C 
ATOM     47  C   UNL     1       1.553  -3.047 -35.127  0.00  0.00    +0.170 C 
ATOM     48  C   UNL     1       0.912  -4.008 -34.122  0.00  0.00    +0.060 C 
ATOM     49  C   UNL     1       0.470  -2.159 -35.744  0.00  0.00    +0.050 C 
ENDBRANCH  42  47
ENDBRANCH  31  44
ENDBRANCH  30  40
ENDBRANCH  27  30
ENDBRANCH   1  27
BRANCH   1  50
ATOM     50  C   UNL     1       2.362  -1.537 -28.342  0.00  0.00    +0.060 C 
BRANCH  50  51
ATOM     51  C   UNL     1       1.027  -1.538 -27.642  0.00  0.00    -0.080 A 
ATOM     52  C   UNL     1      -0.068  -2.134 -28.241  0.00  0.00    +0.000 A 
ATOM     53  C   UNL     1      -1.292  -2.136 -27.599  0.00  0.00    +0.010 A 
ATOM     54  C   UNL     1      -1.421  -1.542 -26.358  0.00  0.00    +0.010 A 
ATOM     55  C   UNL     1      -0.327  -0.946 -25.759  0.00  0.00    +0.010 A 
ATOM     56  C   UNL     1       0.898  -0.949 -26.398  0.00  0.00    +0.000 A 
ENDBRANCH  50  51
ENDBRANCH   1  50
TORSDOF 14
ENDMDL
MODEL 8
REMARK VINA RESULT:      -7.8     20.322     24.487
REMARK  Name = ZINC000003914596
REMARK  17 active torsions:
REMARK  status: ('A' for Active; 'I' for Inactive)
REMARK    1  A    between atoms: C1_1  and  C2_2
REMARK    2  A    between atoms: C2_2  and  C3_3
REMARK    3  A    between atoms: C2_2  and  C4_4
REMARK    4  A    between atoms: C2_2  and  N5_5
REMARK    5  A    between atoms: C6_6  and  C8_8
REMARK    6  A    between atoms: N20_20  and  C22_22
REMARK    7  A    between atoms: C22_22  and  C23_23
REMARK    8  A    between atoms: C23_23  and  O25_25
REMARK    9  A    between atoms: C23_23  and  C26_26
REMARK   10  A    between atoms: C26_26  and  C28_28
REMARK   11  A    between atoms: C26_26  and  N35_35
REMARK   12  A    between atoms: C28_28  and  C29_29
REMARK   13  A    between atoms: C36_36  and  C38_38
REMARK   14  A    between atoms: C38_38  and  C40_40
REMARK   15  A    between atoms: C38_38  and  N44_44
REMARK   16  A    between atoms: C40_40  and  C41_41
REMARK   17  A    between atoms: C45_45  and  C47_47
REMARK                            x       y       z     vdW  Elec       q    Type
REMARK                         _______ _______ _______ _____ _____    ______ ____
ROOT
ATOM      1  C   UNL     1     -20.071  -8.657 -29.211  0.00  0.00    +0.240 C 
ENDROOT
BRANCH   1   2
ATOM      2  N   UNL     1     -20.362  -7.692 -28.148  0.00  0.00    -0.730 N 
ATOM      3  H   UNL     1     -20.799  -7.985 -27.333  0.00  0.00    +0.400 HD
ATOM      4  C   UNL     1     -20.024  -6.396 -28.303  0.00  0.00    +0.520 C 
ATOM      5  O   UNL     1     -19.477  -6.029 -29.321  0.00  0.00    -0.480 OA
BRANCH   4   6
ATOM      6  C   UNL     1     -20.323  -5.404 -27.209  0.00  0.00    +0.270 C 
BRANCH   6   7
ATOM      7  N   UNL     1     -21.707  -5.576 -26.759  0.00  0.00    -0.680 N 
ATOM      8  H   UNL     1     -21.965  -6.377 -26.279  0.00  0.00    +0.430 HD
ATOM      9  C   UNL     1     -22.622  -4.619 -27.015  0.00  0.00    +0.580 C 
ATOM     10  O   UNL     1     -22.322  -3.658 -27.694  0.00  0.00    -0.530 OA
BRANCH   9  11
ATOM     11  C   UNL     1     -23.994  -4.741 -26.467  0.00  0.00    +0.110 A 
ATOM     12  C   UNL     1     -25.086  -4.362 -27.262  0.00  0.00    +0.020 A 
ATOM     13  C   UNL     1     -26.355  -4.471 -26.769  0.00  0.00    +0.090 A 
ATOM     14  C   UNL     1     -26.522  -4.966 -25.463  0.00  0.00    -0.080 A 
ATOM     15  C   UNL     1     -27.798  -5.103 -24.892  0.00  0.00    +0.040 A 
ATOM     16  C   UNL     1     -27.921  -5.586 -23.626  0.00  0.00    +0.030 A 
ATOM     17  C   UNL     1     -26.796  -5.946 -22.884  0.00  0.00    +0.030 A 
ATOM     18  C   UNL     1     -25.546  -5.827 -23.402  0.00  0.00    +0.050 A 
ATOM     19  C   UNL     1     -25.376  -5.331 -24.710  0.00  0.00    +0.120 A 
ATOM     20  N   UNL     1     -24.161  -5.209 -25.245  0.00  0.00    -0.430 NA
ENDBRANCH   9  11
ENDBRANCH   6   7
BRANCH   6  21
ATOM     21  C   UNL     1     -19.373  -5.639 -26.033  0.00  0.00    +0.060 C 
BRANCH  21  22
ATOM     22  C   UNL     1     -18.692  -4.343 -25.670  0.00  0.00    +0.510 C 
ATOM     23  O   UNL     1     -18.240  -3.631 -26.542  0.00  0.00    -0.520 OA
ATOM     24  N   UNL     1     -18.587  -3.976 -24.378  0.00  0.00    -0.860 N 
ATOM     25  H   UNL     1     -18.149  -3.143 -24.144  0.00  0.00    +0.400 HD
ATOM     26  H   UNL     1     -18.949  -4.546 -23.681  0.00  0.00    +0.400 HD
ENDBRANCH  21  22
ENDBRANCH   6  21
ENDBRANCH   4   6
ENDBRANCH   1   2
BRANCH   1  27
ATOM     27  C   UNL     1     -21.379  -9.104 -29.867  0.00  0.00    +0.210 C 
BRANCH  27  28
ATOM     28  O   UNL     1     -21.488 -10.527 -29.789  0.00  0.00    -0.550 OA
ATOM     29  H   UNL     1     -22.069 -10.914 -30.457  0.00  0.00    +0.390 HD
ENDBRANCH  27  28
BRANCH  27  30
ATOM     30  C   UNL     1     -21.388  -8.671 -31.334  0.00  0.00    +0.240 C 
BRANCH  30  40
ATOM     31  C   UNL     1     -19.385  -8.890 -32.607  0.00  0.00    +0.160 C 
ATOM     32  C   UNL     1     -18.488  -9.852 -33.388  0.00  0.00    +0.100 C 
ATOM     33  C   UNL     1     -19.271 -10.407 -34.584  0.00  0.00    +0.010 C 
ATOM     34  C   UNL     1     -19.641  -9.252 -35.517  0.00  0.00    +0.010 C 
ATOM     35  C   UNL     1     -20.456  -9.786 -36.696  0.00  0.00    +0.020 C 
ATOM     36  C   UNL     1     -21.737 -10.442 -36.173  0.00  0.00    +0.010 C 
ATOM     37  C   UNL     1     -21.369 -11.601 -35.244  0.00  0.00    +0.040 C 
ATOM     38  C   UNL     1     -20.538 -11.092 -34.067  0.00  0.00    +0.000 C 
ATOM     39  C   UNL     1     -21.342 -10.065 -33.268  0.00  0.00    +0.250 C 
ATOM     40  N   UNL     1     -20.573  -9.603 -32.124  0.00  0.00    -0.350 N 
ATOM     41  H   UNL     1     -20.317 -10.394 -31.552  0.00  0.00    +0.430 HD
BRANCH  31  44
ATOM     42  N   UNL     1     -18.929  -6.793 -33.837  0.00  0.00    -0.700 N 
ATOM     43  H   UNL     1     -18.021  -6.827 -33.497  0.00  0.00    +0.410 HD
ATOM     44  C   UNL     1     -19.810  -7.758 -33.505  0.00  0.00    +0.530 C 
ATOM     45  O   UNL     1     -20.945  -7.714 -33.931  0.00  0.00    -0.530 OA
BRANCH  42  47
ATOM     46  C   UNL     1     -20.869  -5.649 -34.789  0.00  0.00    +0.040 C 
ATOM     47  C   UNL     1     -19.342  -5.693 -34.711  0.00  0.00    +0.170 C 
ATOM     48  C   UNL     1     -18.823  -4.369 -34.145  0.00  0.00    +0.060 C 
ATOM     49  C   UNL     1     -18.765  -5.909 -36.111  0.00  0.00    +0.050 C 
ENDBRANCH  42  47
ENDBRANCH  31  44
ENDBRANCH  30  40
ENDBRANCH  27  30
ENDBRANCH   1  27
BRANCH   1  50
ATOM     50  C   UNL     1     -19.357  -9.871 -28.615  0.00  0.00    +0.060 C 
BRANCH  50  51
ATOM     51  C   UNL     1     -18.145 -10.202 -29.447  0.00  0.00    -0.080 A 
ATOM     52  C   UNL     1     -17.235  -9.211 -29.768  0.00  0.00    +0.000 A 
ATOM     53  C   UNL     1     -16.123  -9.514 -30.530  0.00  0.00    +0.010 A 
ATOM     54  C   UNL     1     -15.920 -10.807 -30.972  0.00  0.00    +0.010 A 
ATOM     55  C   UNL     1     -16.829 -11.798 -30.651  0.00  0.00    +0.010 A 
ATOM     56  C   UNL     1     -17.938 -11.497 -29.884  0.00  0.00    +0.000 A 
ENDBRANCH  50  51
ENDBRANCH   1  50
TORSDOF 14
ENDMDL
MODEL 9
REMARK VINA RESULT:      -7.7     20.270     23.432
REMARK  Name = ZINC000003914596
REMARK  17 active torsions:
REMARK  status: ('A' for Active; 'I' for Inactive)
REMARK    1  A    between atoms: C1_1  and  C2_2
REMARK    2  A    between atoms: C2_2  and  C3_3
REMARK    3  A    between atoms: C2_2  and  C4_4
REMARK    4  A    between atoms: C2_2  and  N5_5
REMARK    5  A    between atoms: C6_6  and  C8_8
REMARK    6  A    between atoms: N20_20  and  C22_22
REMARK    7  A    between atoms: C22_22  and  C23_23
REMARK    8  A    between atoms: C23_23  and  O25_25
REMARK    9  A    between atoms: C23_23  and  C26_26
REMARK   10  A    between atoms: C26_26  and  C28_28
REMARK   11  A    between atoms: C26_26  and  N35_35
REMARK   12  A    between atoms: C28_28  and  C29_29
REMARK   13  A    between atoms: C36_36  and  C38_38
REMARK   14  A    between atoms: C38_38  and  C40_40
REMARK   15  A    between atoms: C38_38  and  N44_44
REMARK   16  A    between atoms: C40_40  and  C41_41
REMARK   17  A    between atoms: C45_45  and  C47_47
REMARK                            x       y       z     vdW  Elec       q    Type
REMARK                         _______ _______ _______ _____ _____    ______ ____
ROOT
ATOM      1  C   UNL     1      -0.877  18.714 -29.926  0.00  0.00    +0.240 C 
ENDROOT
BRANCH   1   2
ATOM      2  N   UNL     1      -2.168  18.244 -29.419  0.00  0.00    -0.730 N 
ATOM      3  H   UNL     1      -2.605  17.484 -29.835  0.00  0.00    +0.400 HD
ATOM      4  C   UNL     1      -2.749  18.866 -28.373  0.00  0.00    +0.520 C 
ATOM      5  O   UNL     1      -2.203  19.814 -27.852  0.00  0.00    -0.480 OA
BRANCH   4   6
ATOM      6  C   UNL     1      -4.077  18.381 -27.852  0.00  0.00    +0.270 C 
BRANCH   6   7
ATOM      7  N   UNL     1      -4.508  19.237 -26.744  0.00  0.00    -0.680 N 
ATOM      8  H   UNL     1      -4.329  20.189 -26.768  0.00  0.00    +0.430 HD
ATOM      9  C   UNL     1      -5.153  18.700 -25.688  0.00  0.00    +0.580 C 
ATOM     10  O   UNL     1      -5.298  17.495 -25.614  0.00  0.00    -0.530 OA
BRANCH   9  11
ATOM     11  C   UNL     1      -5.686  19.578 -24.620  0.00  0.00    +0.110 A 
ATOM     12  C   UNL     1      -7.048  19.512 -24.294  0.00  0.00    +0.020 A 
ATOM     13  C   UNL     1      -7.551  20.316 -23.311  0.00  0.00    +0.090 A 
ATOM     14  C   UNL     1      -6.671  21.193 -22.652  0.00  0.00    -0.080 A 
ATOM     15  C   UNL     1      -7.120  22.048 -21.632  0.00  0.00    +0.040 A 
ATOM     16  C   UNL     1      -6.239  22.883 -21.018  0.00  0.00    +0.030 A 
ATOM     17  C   UNL     1      -4.894  22.903 -21.386  0.00  0.00    +0.030 A 
ATOM     18  C   UNL     1      -4.423  22.091 -22.369  0.00  0.00    +0.050 A 
ATOM     19  C   UNL     1      -5.303  21.212 -23.030  0.00  0.00    +0.120 A 
ATOM     20  N   UNL     1      -4.867  20.400 -23.994  0.00  0.00    -0.430 NA
ENDBRANCH   9  11
ENDBRANCH   6   7
BRANCH   6  21
ATOM     21  C   UNL     1      -5.117  18.437 -28.973  0.00  0.00    +0.060 C 
BRANCH  21  22
ATOM     22  C   UNL     1      -5.645  17.050 -29.238  0.00  0.00    +0.510 C 
ATOM     23  O   UNL     1      -5.364  16.482 -30.272  0.00  0.00    -0.520 OA
ATOM     24  N   UNL     1      -6.429  16.442 -28.326  0.00  0.00    -0.860 N 
ATOM     25  H   UNL     1      -6.769  15.550 -28.496  0.00  0.00    +0.400 HD
ATOM     26  H   UNL     1      -6.653  16.896 -27.499  0.00  0.00    +0.400 HD
ENDBRANCH  21  22
ENDBRANCH   6  21
ENDBRANCH   4   6
ENDBRANCH   1   2
BRANCH   1  27
ATOM     27  C   UNL     1      -0.953  18.874 -31.446  0.00  0.00    +0.210 C 
BRANCH  27  28
ATOM     28  O   UNL     1      -2.316  19.053 -31.837  0.00  0.00    -0.550 OA
ATOM     29  H   UNL     1      -2.494  19.902 -32.264  0.00  0.00    +0.390 HD
ENDBRANCH  27  28
BRANCH  27  30
ATOM     30  C   UNL     1      -0.390  17.621 -32.119  0.00  0.00    +0.240 C 
BRANCH  30  40
ATOM     31  C   UNL     1      -2.033  15.893 -32.146  0.00  0.00    +0.160 C 
ATOM     32  C   UNL     1      -3.168  15.248 -32.942  0.00  0.00    +0.100 C 
ATOM     33  C   UNL     1      -2.606  14.690 -34.255  0.00  0.00    +0.010 C 
ATOM     34  C   UNL     1      -1.582  13.599 -33.934  0.00  0.00    +0.010 C 
ATOM     35  C   UNL     1      -0.983  13.059 -35.234  0.00  0.00    +0.020 C 
ATOM     36  C   UNL     1      -0.288  14.198 -35.985  0.00  0.00    +0.010 C 
ATOM     37  C   UNL     1      -1.311  15.287 -36.312  0.00  0.00    +0.040 C 
ATOM     38  C   UNL     1      -1.936  15.830 -35.026  0.00  0.00    +0.000 C 
ATOM     39  C   UNL     1      -0.850  16.434 -34.135  0.00  0.00    +0.250 C 
ATOM     40  N   UNL     1      -1.440  16.985 -32.927  0.00  0.00    -0.350 N 
ATOM     41  H   UNL     1      -2.133  17.674 -33.177  0.00  0.00    +0.430 HD
BRANCH  31  44
ATOM     42  N   UNL     1       0.301  15.078 -32.214  0.00  0.00    -0.700 N 
ATOM     43  H   UNL     1       0.543  15.899 -32.671  0.00  0.00    +0.410 HD
ATOM     44  C   UNL     1      -0.978  14.860 -31.848  0.00  0.00    +0.530 C 
ATOM     45  O   UNL     1      -1.278  13.833 -31.277  0.00  0.00    -0.530 OA
BRANCH  42  47
ATOM     46  C   UNL     1       2.300  13.981 -33.101  0.00  0.00    +0.040 C 
ATOM     47  C   UNL     1       1.327  14.073 -31.924  0.00  0.00    +0.170 C 
ATOM     48  C   UNL     1       2.092  14.476 -30.661  0.00  0.00    +0.060 C 
ATOM     49  C   UNL     1       0.662  12.713 -31.704  0.00  0.00    +0.050 C 
ENDBRANCH  42  47
ENDBRANCH  31  44
ENDBRANCH  30  40
ENDBRANCH  27  30
ENDBRANCH   1  27
BRANCH   1  50
ATOM     50  C   UNL     1       0.210  17.698 -29.573  0.00  0.00    +0.060 C 
BRANCH  50  51
ATOM     51  C   UNL     1       1.438  18.422 -29.085  0.00  0.00    -0.080 A 
ATOM     52  C   UNL     1       2.671  17.797 -29.123  0.00  0.00    +0.000 A 
ATOM     53  C   UNL     1       3.797  18.462 -28.676  0.00  0.00    +0.010 A 
ATOM     54  C   UNL     1       3.691  19.751 -28.191  0.00  0.00    +0.010 A 
ATOM     55  C   UNL     1       2.459  20.377 -28.154  0.00  0.00    +0.010 A 
ATOM     56  C   UNL     1       1.333  19.715 -28.606  0.00  0.00    +0.000 A 
ENDBRANCH  50  51
ENDBRANCH   1  50
TORSDOF 14
ENDMDL
