@<TRIPOS>MOLECULE
ZINC000003914596
100   104   1     0     0
SMALL
USER_CHARGES
@<TRIPOS>ATOM
1      C1      0.6859   -0.3286   -1.1464 C.3      1 ZINC000003914596   -0.1700
2      C2      1.2215   -1.7612   -1.1079 C.3      1 ZINC000003914596    0.1700
3      C3      2.0291   -1.9695    0.1748 C.3      1 ZINC000003914596   -0.1700
4      C4      0.0498   -2.7447   -1.1382 C.3      1 ZINC000003914596   -0.1600
5      N5      2.0829   -1.9920   -2.2702 N.am     1 ZINC000003914596   -0.7000
6      C6      3.1846   -1.2373   -2.4528 C.2      1 ZINC000003914596    0.5300
7      O7      3.4628   -0.3673   -1.6550 O.2      1 ZINC000003914596   -0.5300
8      C8      4.0707   -1.4747   -3.6485 C.3      1 ZINC000003914596    0.0000
9      H9      3.5268   -1.2223   -4.5587 H        1 ZINC000003914596    0.1600
10     C10     4.4816   -2.9481   -3.6931 C.3      1 ZINC000003914596   -0.1300
11     C11     5.2428   -3.2953   -2.4084 C.3      1 ZINC000003914596   -0.1000
12     H12     5.5814   -4.3305   -2.4511 H        1 ZINC000003914596    0.1100
13     C13     4.3098   -3.1078   -1.2097 C.3      1 ZINC000003914596   -0.1700
14     C14     5.0675   -3.4133    0.0833 C.3      1 ZINC000003914596   -0.1200
15     C15     6.2547   -2.4568    0.2148 C.3      1 ZINC000003914596   -0.1300
16     C16     7.1928   -2.6466   -0.9787 C.3      1 ZINC000003914596   -0.1100
17     C17     6.4507   -2.3630   -2.2846 C.3      1 ZINC000003914596   -0.0900
18     H18     7.1287   -2.5106   -3.1251 H        1 ZINC000003914596    0.0900
19     C19     5.9419   -0.9208   -2.2905 C.3      1 ZINC000003914596   -0.0500
20     N20     5.2669   -0.6308   -3.5447 N.4      1 ZINC000003914596   -0.3500
21     H21     5.8996   -0.7991   -4.3124 H        1 ZINC000003914596    0.4300
22     C22     4.8468    0.7768   -3.5585 C.3      1 ZINC000003914596   -0.0700
23     C23     6.0830    1.6782   -3.5453 C.3      1 ZINC000003914596    0.0800
24     H24     6.7114    1.4205   -2.6927 H        1 ZINC000003914596    0.1300
25     O25     6.8211    1.4921   -4.7546 O.3      1 ZINC000003914596   -0.5500
26     C26     5.6468    3.1404   -3.4338 C.3      1 ZINC000003914596    0.1300
27     H27     5.0096    3.2638   -2.5581 H        1 ZINC000003914596    0.1100
28     C28     4.8695    3.5379   -4.6903 C.3      1 ZINC000003914596   -0.1000
29     C29     4.3349    4.9376   -4.5285 C.ar     1 ZINC000003914596   -0.0800
30     C30     3.0882    5.1407   -3.9669 C.ar     1 ZINC000003914596   -0.1100
31     C31     2.5979    6.4246   -3.8185 C.ar     1 ZINC000003914596   -0.1100
32     C32     3.3544    7.5054   -4.2312 C.ar     1 ZINC000003914596   -0.1100
33     C33     4.6015    7.3024   -4.7919 C.ar     1 ZINC000003914596   -0.1100
34     C34     5.0937    6.0187   -4.9364 C.ar     1 ZINC000003914596   -0.1100
35     N35     6.8299    3.9942   -3.3010 N.am     1 ZINC000003914596   -0.7300
36     C36     6.7291    5.1970   -2.7014 C.2      1 ZINC000003914596    0.5200
37     O37     5.6589    5.5726   -2.2718 O.2      1 ZINC000003914596   -0.4800
38     C38     7.9461    6.0752   -2.5648 C.3      1 ZINC000003914596    0.1500
39     H39     8.3401    6.3065   -3.5544 H        1 ZINC000003914596    0.1200
40     C40     9.0138    5.3438   -1.7489 C.3      1 ZINC000003914596   -0.1600
41     C41     8.4703    5.0272   -0.3794 C.2      1 ZINC000003914596    0.5100
42     N42     9.1921    4.2749    0.4747 N.am     1 ZINC000003914596   -0.8600
43     O43     7.3833    5.4493   -0.0460 O.2      1 ZINC000003914596   -0.5200
44     N44     7.5771    7.3184   -1.8833 N.am     1 ZINC000003914596   -0.6800
45     C45     8.2747    8.4477   -2.1170 C.2      1 ZINC000003914596    0.5800
46     O46     9.1508    8.4573   -2.9587 O.2      1 ZINC000003914596   -0.5300
47     C47     7.9729    9.6783   -1.3469 C.ar     1 ZINC000003914596    0.1100
48     C48     8.7047   10.8460   -1.6072 C.ar     1 ZINC000003914596   -0.1300
49     C49     8.4363   11.9860   -0.9054 C.ar     1 ZINC000003914596   -0.0600
50     C50     7.4202   11.9456    0.0672 C.ar     1 ZINC000003914596   -0.0800
51     C51     7.0910   13.0808    0.8255 C.ar     1 ZINC000003914596   -0.1000
52     C52     6.1017   13.0044    1.7575 C.ar     1 ZINC000003914596   -0.1000
53     C53     5.4092   11.8131    1.9713 C.ar     1 ZINC000003914596   -0.1000
54     C54     5.7002   10.6936    1.2561 C.ar     1 ZINC000003914596   -0.0900
55     C55     6.7166   10.7315    0.2821 C.ar     1 ZINC000003914596    0.1200
56     N56     7.0187    9.6510   -0.4367 N.ar     1 ZINC000003914596   -0.4300
57     H57     1.5206    0.3721   -1.1248 H        1 ZINC000003914596    0.0800
58     H58     0.1106   -0.1802   -2.0602 H        1 ZINC000003914596    0.0600
59     H59     0.0450   -0.1569   -0.2816 H        1 ZINC000003914596    0.0700
60     H60     1.3881   -1.7979    1.0396 H        1 ZINC000003914596    0.0700
61     H61     2.4106   -2.9902    0.2023 H        1 ZINC000003914596    0.0700
62     H62     2.8638   -1.2689    0.1965 H        1 ZINC000003914596    0.0800
63     H63    -0.5255   -2.5963   -2.0520 H        1 ZINC000003914596    0.0700
64     H64     0.4314   -3.7654   -1.1108 H        1 ZINC000003914596    0.0700
65     H65    -0.5911   -2.5730   -0.2734 H        1 ZINC000003914596    0.0800
66     H66     1.8604   -2.6878   -2.9082 H        1 ZINC000003914596    0.4100
67     H67     3.5914   -3.5726   -3.7693 H        1 ZINC000003914596    0.1200
68     H68     5.1247   -3.1213   -4.5559 H        1 ZINC000003914596    0.1100
69     H69     3.9518   -2.0786   -1.1860 H        1 ZINC000003914596    0.1000
70     H70     3.4606   -3.7850   -1.3014 H        1 ZINC000003914596    0.0800
71     H71     4.4000   -3.2835    0.9352 H        1 ZINC000003914596    0.0700
72     H72     5.4298   -4.4411    0.0583 H        1 ZINC000003914596    0.0700
73     H73     5.8932   -1.4287    0.2334 H        1 ZINC000003914596    0.0600
74     H74     6.7932   -2.6702    1.1382 H        1 ZINC000003914596    0.0800
75     H75     8.0389   -1.9655   -0.8870 H        1 ZINC000003914596    0.0700
76     H76     7.5554   -3.6744   -0.9953 H        1 ZINC000003914596    0.0800
77     H77     5.2516   -0.7758   -1.4595 H        1 ZINC000003914596    0.1700
78     H78     6.7849   -0.2379   -2.1854 H        1 ZINC000003914596    0.1300
79     H79     4.2636    0.9731   -4.4582 H        1 ZINC000003914596    0.1300
80     H80     4.2375    0.9827   -2.6784 H        1 ZINC000003914596    0.1800
81     H81     6.3227    1.7030   -5.5560 H        1 ZINC000003914596    0.3900
82     H82     5.5322    3.4998   -5.5548 H        1 ZINC000003914596    0.0800
83     H83     4.0396    2.8468   -4.8379 H        1 ZINC000003914596    0.0800
84     H84     2.4971    4.2963   -3.6445 H        1 ZINC000003914596    0.1100
85     H85     1.6235    6.5833   -3.3804 H        1 ZINC000003914596    0.1200
86     H86     2.9710    8.5085   -4.1159 H        1 ZINC000003914596    0.1200
87     H87     5.1925    8.1468   -5.1147 H        1 ZINC000003914596    0.1200
88     H88     6.0680    5.8600   -5.3745 H        1 ZINC000003914596    0.1100
89     H89     7.6858    3.6938   -3.6447 H        1 ZINC000003914596    0.4000
90     H90     9.2864    4.4175   -2.2546 H        1 ZINC000003914596    0.1000
91     H91     9.8951    5.9780   -1.6523 H        1 ZINC000003914596    0.1200
92     H92    10.0614    3.9373    0.2080 H        1 ZINC000003914596    0.4000
93     H93     8.8422    4.0711    1.3562 H        1 ZINC000003914596    0.4000
94     H94     6.8308    7.3288   -1.2638 H        1 ZINC000003914596    0.4300
95     H95     9.4787   10.8433   -2.3604 H        1 ZINC000003914596    0.1500
96     H96     8.9895   12.8947   -1.0916 H        1 ZINC000003914596    0.1500
97     H97     7.6201   14.0094    0.6703 H        1 ZINC000003914596    0.1400
98     H98     5.8500   13.8785    2.3397 H        1 ZINC000003914596    0.1300
99     H99     4.6290   11.7789    2.7173 H        1 ZINC000003914596    0.1300
100    H100    5.1542    9.7791    1.4347 H        1 ZINC000003914596    0.1400
@<TRIPOS>BOND
1     1     2     1
2     1     57    1
3     1     58    1
4     1     59    1
5     2     3     1
6     2     4     1
7     2     5     1
8     3     60    1
9     3     61    1
10    3     62    1
11    4     63    1
12    4     64    1
13    4     65    1
14    5     6     am
15    5     66    1
16    6     7     2
17    6     8     1
18    8     9     1
19    8     20    1
20    8     10    1
21    10    11    1
22    10    67    1
23    10    68    1
24    11    12    1
25    11    17    1
26    11    13    1
27    13    14    1
28    13    69    1
29    13    70    1
30    14    15    1
31    14    71    1
32    14    72    1
33    15    16    1
34    15    73    1
35    15    74    1
36    16    17    1
37    16    75    1
38    16    76    1
39    17    18    1
40    17    19    1
41    19    20    1
42    19    77    1
43    19    78    1
44    20    21    1
45    20    22    1
46    22    23    1
47    22    79    1
48    22    80    1
49    23    24    1
50    23    25    1
51    23    26    1
52    25    81    1
53    26    27    1
54    26    28    1
55    26    35    1
56    28    29    1
57    28    82    1
58    28    83    1
59    29    34    ar
60    29    30    ar
61    30    31    ar
62    30    84    1
63    31    32    ar
64    31    85    1
65    32    33    ar
66    32    86    1
67    33    34    ar
68    33    87    1
69    34    88    1
70    35    36    am
71    35    89    1
72    36    37    2
73    36    38    1
74    38    39    1
75    38    40    1
76    38    44    1
77    40    41    1
78    40    90    1
79    40    91    1
80    41    42    am
81    41    43    2
82    42    92    1
83    42    93    1
84    44    45    am
85    44    94    1
86    45    46    2
87    45    47    1
88    47    56    ar
89    47    48    ar
90    48    49    ar
91    48    95    1
92    49    50    ar
93    49    96    1
94    50    55    ar
95    50    51    ar
96    51    52    ar
97    51    97    1
98    52    53    ar
99    52    98    1
100   53    54    ar
101   53    99    1
102   54    55    ar
103   54    100   1
104   55    56    ar
@<TRIPOS>SUBSTRUCTURE
1   ZINC000003914596 1     RESIDUE    1   A     ZIN   1
