REMARK  Name = ZINC000003914596
REMARK  17 active torsions:
REMARK  status: ('A' for Active; 'I' for Inactive)
REMARK    1  A    between atoms: C1_1  and  C2_2
REMARK    2  A    between atoms: C2_2  and  C3_3
REMARK    3  A    between atoms: C2_2  and  C4_4
REMARK    4  A    between atoms: C2_2  and  N5_5
REMARK    5  A    between atoms: C6_6  and  C8_8
REMARK    6  A    between atoms: N20_20  and  C22_22
REMARK    7  A    between atoms: C22_22  and  C23_23
REMARK    8  A    between atoms: C23_23  and  O25_25
REMARK    9  A    between atoms: C23_23  and  C26_26
REMARK   10  A    between atoms: C26_26  and  C28_28
REMARK   11  A    between atoms: C26_26  and  N35_35
REMARK   12  A    between atoms: C28_28  and  C29_29
REMARK   13  A    between atoms: C36_36  and  C38_38
REMARK   14  A    between atoms: C38_38  and  C40_40
REMARK   15  A    between atoms: C38_38  and  N44_44
REMARK   16  A    between atoms: C40_40  and  C41_41
REMARK   17  A    between atoms: C45_45  and  C47_47
REMARK                            x       y       z     vdW  Elec       q    Type
REMARK                         _______ _______ _______ _____ _____    ______ ____
ROOT
ATOM      1  C   UNL     1       5.647   3.140  -3.434  0.00  0.00    +0.240 C 
ENDROOT
BRANCH   1   2
ATOM      2  N   UNL     1       6.830   3.994  -3.301  0.00  0.00    -0.730 N 
ATOM      3  H   UNL     1       7.686   3.694  -3.645  0.00  0.00    +0.400 HD
ATOM      4  C   UNL     1       6.729   5.197  -2.701  0.00  0.00    +0.520 C 
ATOM      5  O   UNL     1       5.659   5.573  -2.272  0.00  0.00    -0.480 OA
BRANCH   4   6
ATOM      6  C   UNL     1       7.946   6.075  -2.565  0.00  0.00    +0.270 C 
BRANCH   6   7
ATOM      7  N   UNL     1       7.577   7.318  -1.883  0.00  0.00    -0.680 N 
ATOM      8  H   UNL     1       6.831   7.329  -1.264  0.00  0.00    +0.430 HD
ATOM      9  C   UNL     1       8.275   8.448  -2.117  0.00  0.00    +0.580 C 
ATOM     10  O   UNL     1       9.151   8.457  -2.959  0.00  0.00    -0.530 OA
BRANCH   9  11
ATOM     11  C   UNL     1       7.973   9.678  -1.347  0.00  0.00    +0.110 A 
ATOM     12  C   UNL     1       8.705  10.846  -1.607  0.00  0.00    +0.020 A 
ATOM     13  C   UNL     1       8.436  11.986  -0.905  0.00  0.00    +0.090 A 
ATOM     14  C   UNL     1       7.420  11.946   0.067  0.00  0.00    -0.080 A 
ATOM     15  C   UNL     1       7.091  13.081   0.826  0.00  0.00    +0.040 A 
ATOM     16  C   UNL     1       6.102  13.004   1.758  0.00  0.00    +0.030 A 
ATOM     17  C   UNL     1       5.409  11.813   1.971  0.00  0.00    +0.030 A 
ATOM     18  C   UNL     1       5.700  10.694   1.256  0.00  0.00    +0.050 A 
ATOM     19  C   UNL     1       6.717  10.732   0.282  0.00  0.00    +0.120 A 
ATOM     20  N   UNL     1       7.019   9.651  -0.437  0.00  0.00    -0.430 NA
ENDBRANCH   9  11
ENDBRANCH   6   7
BRANCH   6  21
ATOM     21  C   UNL     1       9.014   5.344  -1.749  0.00  0.00    +0.060 C 
BRANCH  21  22
ATOM     22  C   UNL     1       8.470   5.027  -0.379  0.00  0.00    +0.510 C 
ATOM     23  O   UNL     1       7.383   5.449  -0.046  0.00  0.00    -0.520 OA
ATOM     24  N   UNL     1       9.192   4.275   0.475  0.00  0.00    -0.860 N 
ATOM     25  H   UNL     1       8.842   4.071   1.356  0.00  0.00    +0.400 HD
ATOM     26  H   UNL     1      10.061   3.937   0.208  0.00  0.00    +0.400 HD
ENDBRANCH  21  22
ENDBRANCH   6  21
ENDBRANCH   4   6
ENDBRANCH   1   2
BRANCH   1  27
ATOM     27  C   UNL     1       6.083   1.678  -3.545  0.00  0.00    +0.210 C 
BRANCH  27  28
ATOM     28  O   UNL     1       6.821   1.492  -4.755  0.00  0.00    -0.550 OA
ATOM     29  H   UNL     1       6.323   1.703  -5.556  0.00  0.00    +0.390 HD
ENDBRANCH  27  28
BRANCH  27  30
ATOM     30  C   UNL     1       4.847   0.777  -3.558  0.00  0.00    +0.240 C 
BRANCH  30  40
ATOM     31  C   UNL     1       4.071  -1.475  -3.648  0.00  0.00    +0.160 C 
ATOM     32  C   UNL     1       4.482  -2.948  -3.693  0.00  0.00    +0.100 C 
ATOM     33  C   UNL     1       5.243  -3.295  -2.408  0.00  0.00    +0.010 C 
ATOM     34  C   UNL     1       4.310  -3.108  -1.210  0.00  0.00    +0.010 C 
ATOM     35  C   UNL     1       5.067  -3.413   0.083  0.00  0.00    +0.020 C 
ATOM     36  C   UNL     1       6.255  -2.457   0.215  0.00  0.00    +0.010 C 
ATOM     37  C   UNL     1       7.193  -2.647  -0.979  0.00  0.00    +0.040 C 
ATOM     38  C   UNL     1       6.451  -2.363  -2.285  0.00  0.00    +0.000 C 
ATOM     39  C   UNL     1       5.942  -0.921  -2.291  0.00  0.00    +0.250 C 
ATOM     40  N   UNL     1       5.267  -0.631  -3.545  0.00  0.00    -0.350 N 
ATOM     41  H   UNL     1       5.900  -0.799  -4.312  0.00  0.00    +0.430 HD
BRANCH  31  44
ATOM     42  N   UNL     1       2.083  -1.992  -2.270  0.00  0.00    -0.700 N 
ATOM     43  H   UNL     1       1.860  -2.688  -2.908  0.00  0.00    +0.410 HD
ATOM     44  C   UNL     1       3.185  -1.237  -2.453  0.00  0.00    +0.530 C 
ATOM     45  O   UNL     1       3.463  -0.367  -1.655  0.00  0.00    -0.530 OA
BRANCH  42  47
ATOM     46  C   UNL     1       0.686  -0.329  -1.146  0.00  0.00    +0.040 C 
ATOM     47  C   UNL     1       1.222  -1.761  -1.108  0.00  0.00    +0.170 C 
ATOM     48  C   UNL     1       0.050  -2.745  -1.138  0.00  0.00    +0.060 C 
ATOM     49  C   UNL     1       2.029  -1.970   0.175  0.00  0.00    +0.050 C 
ENDBRANCH  42  47
ENDBRANCH  31  44
ENDBRANCH  30  40
ENDBRANCH  27  30
ENDBRANCH   1  27
BRANCH   1  50
ATOM     50  C   UNL     1       4.870   3.538  -4.690  0.00  0.00    +0.060 C 
BRANCH  50  51
ATOM     51  C   UNL     1       4.335   4.938  -4.529  0.00  0.00    -0.080 A 
ATOM     52  C   UNL     1       3.088   5.141  -3.967  0.00  0.00    +0.000 A 
ATOM     53  C   UNL     1       2.598   6.425  -3.818  0.00  0.00    +0.010 A 
ATOM     54  C   UNL     1       3.354   7.505  -4.231  0.00  0.00    +0.010 A 
ATOM     55  C   UNL     1       4.601   7.302  -4.792  0.00  0.00    +0.010 A 
ATOM     56  C   UNL     1       5.094   6.019  -4.936  0.00  0.00    +0.000 A 
ENDBRANCH  50  51
ENDBRANCH   1  50
TORSDOF 14
