@<TRIPOS>MOLECULE
ZINC000003780893
68    70    1     0     0
SMALL
USER_CHARGES
@<TRIPOS>ATOM
1      C1      1.2923   -0.4003   -2.1328 C.3      1 ZINC000003780893   -0.1500
2      C2      0.6819   -1.7909   -2.3184 C.3      1 ZINC000003780893   -0.1000
3      C3     -0.7589   -1.7883   -1.8038 C.3      1 ZINC000003780893   -0.0500
4      C4     -0.7693   -1.4209   -0.3186 C.3      1 ZINC000003780893   -0.1500
5      C5     -1.5790   -0.7624   -2.5887 C.3      1 ZINC000003780893   -0.1500
6      C6     -1.3601   -3.1580   -1.9866 C.2      1 ZINC000003780893    0.4600
7      O7     -0.7589   -4.0040   -2.6051 O.2      1 ZINC000003780893   -0.5000
8      O8     -2.5636   -3.4381   -1.4623 O.3      1 ZINC000003780893   -0.3200
9      C9     -3.0233   -4.8117   -1.5637 C.3      1 ZINC000003780893    0.0900
10     H10    -2.6841   -5.2299   -2.5114 H        1 ZINC000003780893    0.0800
11     C11    -2.4211   -5.6231   -0.4185 C.3      1 ZINC000003780893   -0.1300
12     C12    -2.9263   -7.0681   -0.5324 C.3      1 ZINC000003780893   -0.0600
13     H13    -2.6488   -7.4810   -1.5023 H        1 ZINC000003780893    0.0800
14     C14    -2.3202   -7.9188    0.5856 C.3      1 ZINC000003780893   -0.1400
15     C15    -4.4270   -7.0418   -0.3992 C.2      1 ZINC000003780893   -0.1400
16     C16    -5.1306   -6.0129   -0.8340 C.2      1 ZINC000003780893   -0.0900
17     C17    -6.5900   -5.9784   -0.5821 C.2      1 ZINC000003780893   -0.1200
18     C18    -7.2509   -4.8407   -0.7080 C.2      1 ZINC000003780893   -0.1400
19     C19    -6.6206   -3.5435   -1.1143 C.3      1 ZINC000003780893   -0.0600
20     H20    -7.0554   -2.7367   -0.5243 H        1 ZINC000003780893    0.0800
21     C21    -6.9097   -3.2903   -2.5952 C.3      1 ZINC000003780893   -0.1600
22     C22    -5.1065   -3.5595   -0.8986 C.3      1 ZINC000003780893   -0.0600
23     H23    -4.8893   -3.5553    0.1695 H        1 ZINC000003780893    0.0700
24     C24    -4.4818   -2.3263   -1.5541 C.3      1 ZINC000003780893   -0.1200
25     C25    -5.3850   -1.1132   -1.3231 C.3      1 ZINC000003780893   -0.1400
26     C26    -4.7878    0.1083   -2.0246 C.3      1 ZINC000003780893    0.1000
27     H27    -3.7847    0.2944   -1.6410 H        1 ZINC000003780893    0.0900
28     C28    -5.6709    1.3315   -1.7626 C.3      1 ZINC000003780893   -0.1500
29     C29    -5.0989    2.5402   -2.5098 C.3      1 ZINC000003780893    0.1000
30     H30    -5.7274    3.4120   -2.3285 H        1 ZINC000003780893    0.0800
31     O31    -3.7719    2.8031   -2.0492 O.3      1 ZINC000003780893   -0.5600
32     C32    -5.0714    2.2304   -4.0115 C.3      1 ZINC000003780893   -0.2100
33     C33    -4.3505    0.9160   -4.2146 C.2      1 ZINC000003780893    0.4900
34     O34    -3.4656    0.8121   -5.0307 O.2      1 ZINC000003780893   -0.4500
35     O35    -4.7225   -0.1375   -3.4576 O.3      1 ZINC000003780893   -0.3700
36     C36    -4.5333   -4.8283   -1.5316 C.3      1 ZINC000003780893   -0.0400
37     H37    -4.8691   -4.8571   -2.5682 H        1 ZINC000003780893    0.0800
38     H38     2.3188   -0.4022   -2.4995 H        1 ZINC000003780893    0.0600
39     H39     0.7081    0.3305   -2.6920 H        1 ZINC000003780893    0.0600
40     H40     1.2849   -0.1385   -1.0747 H        1 ZINC000003780893    0.0600
41     H41     0.6893   -2.0527   -3.3765 H        1 ZINC000003780893    0.0700
42     H42     1.2661   -2.5217   -1.7592 H        1 ZINC000003780893    0.0700
43     H43    -0.3344   -0.4301   -0.1863 H        1 ZINC000003780893    0.0700
44     H44    -1.7958   -1.4190    0.0481 H        1 ZINC000003780893    0.0700
45     H45    -0.1851   -2.1517    0.2406 H        1 ZINC000003780893    0.0600
46     H46    -1.4666   -0.9480   -3.6568 H        1 ZINC000003780893    0.0600
47     H47    -2.6300   -0.8500   -2.3133 H        1 ZINC000003780893    0.0800
48     H48    -1.2246    0.2415   -2.3550 H        1 ZINC000003780893    0.0700
49     H49    -1.3335   -5.6076   -0.4896 H        1 ZINC000003780893    0.0700
50     H50    -2.7333   -5.1991    0.5359 H        1 ZINC000003780893    0.0800
51     H51    -2.6129   -7.5099    1.5526 H        1 ZINC000003780893    0.0600
52     H52    -2.6824   -8.9433    0.4996 H        1 ZINC000003780893    0.0600
53     H53    -1.2335   -7.9093    0.5010 H        1 ZINC000003780893    0.0600
54     H54    -4.9348   -7.8778    0.0587 H        1 ZINC000003780893    0.1200
55     H55    -7.1121   -6.8797   -0.2970 H        1 ZINC000003780893    0.1200
56     H56    -8.3118   -4.8466   -0.5057 H        1 ZINC000003780893    0.1100
57     H57    -7.9873   -3.2398   -2.7516 H        1 ZINC000003780893    0.0500
58     H58    -6.4540   -2.3477   -2.8984 H        1 ZINC000003780893    0.0800
59     H59    -6.4938   -4.1030   -3.1908 H        1 ZINC000003780893    0.0600
60     H60    -3.5019   -2.1385   -1.1151 H        1 ZINC000003780893    0.1100
61     H61    -4.3730   -2.4997   -2.6247 H        1 ZINC000003780893    0.0700
62     H62    -6.3765   -1.3160   -1.7280 H        1 ZINC000003780893    0.0900
63     H63    -5.4625   -0.9162   -0.2538 H        1 ZINC000003780893    0.0900
64     H64    -6.6828    1.1316   -2.1149 H        1 ZINC000003780893    0.1000
65     H65    -5.6927    1.5419   -0.6933 H        1 ZINC000003780893    0.1000
66     H66    -3.3480    3.5575   -2.4808 H        1 ZINC000003780893    0.3900
67     H67    -6.0910    2.1521   -4.3889 H        1 ZINC000003780893    0.1200
68     H68    -4.5437    3.0241   -4.5404 H        1 ZINC000003780893    0.1100
@<TRIPOS>BOND
1     1     2     1
2     1     38    1
3     1     39    1
4     1     40    1
5     2     3     1
6     2     41    1
7     2     42    1
8     3     4     1
9     3     5     1
10    3     6     1
11    4     43    1
12    4     44    1
13    4     45    1
14    5     46    1
15    5     47    1
16    5     48    1
17    6     7     2
18    6     8     1
19    8     9     1
20    9     10    1
21    9     36    1
22    9     11    1
23    11    12    1
24    11    49    1
25    11    50    1
26    12    13    1
27    12    14    1
28    12    15    1
29    14    51    1
30    14    52    1
31    14    53    1
32    15    16    2
33    15    54    1
34    16    36    1
35    16    17    1
36    17    18    2
37    17    55    1
38    18    19    1
39    18    56    1
40    19    20    1
41    19    21    1
42    19    22    1
43    21    57    1
44    21    58    1
45    21    59    1
46    22    23    1
47    22    24    1
48    22    36    1
49    24    25    1
50    24    60    1
51    24    61    1
52    25    26    1
53    25    62    1
54    25    63    1
55    26    27    1
56    26    35    1
57    26    28    1
58    28    29    1
59    28    64    1
60    28    65    1
61    29    30    1
62    29    31    1
63    29    32    1
64    31    66    1
65    32    33    1
66    32    67    1
67    32    68    1
68    33    34    2
69    33    35    1
70    36    37    1
@<TRIPOS>SUBSTRUCTURE
1   ZINC000003780893 1     RESIDUE    1   A     ZIN   1
