MODEL 1
REMARK VINA RESULT:      -7.0      0.000      0.000
REMARK  Name = ZINC000003780893
REMARK  13 active torsions:
REMARK  status: ('A' for Active; 'I' for Inactive)
REMARK    1  A    between atoms: C1_1  and  C2_2
REMARK    2  A    between atoms: C2_2  and  C3_3
REMARK    3  A    between atoms: C3_3  and  C4_4
REMARK    4  A    between atoms: C3_3  and  C5_5
REMARK    5  A    between atoms: C3_3  and  C6_6
REMARK    6  A    between atoms: C6_6  and  O8_8
REMARK    7  A    between atoms: O8_8  and  C9_9
REMARK    8  A    between atoms: C12_12  and  C14_14
REMARK    9  A    between atoms: C19_19  and  C21_21
REMARK   10  A    between atoms: C22_22  and  C24_24
REMARK   11  A    between atoms: C24_24  and  C25_25
REMARK   12  A    between atoms: C25_25  and  C26_26
REMARK   13  A    between atoms: C29_29  and  O31_31
REMARK                            x       y       z     vdW  Elec       q    Type
REMARK                         _______ _______ _______ _____ _____    ______ ____
ROOT
ATOM      1  C   UNL     1      -3.757  22.065 -23.132  0.00  0.00    +0.170 C 
ATOM      2  C   UNL     1      -3.657  23.558 -23.437  0.00  0.00    +0.020 C 
ATOM      3  C   UNL     1      -3.820  24.331 -22.121  0.00  0.00    +0.020 C 
ATOM      4  C   UNL     1      -5.187  24.018 -21.570  0.00  0.00    -0.020 C 
ATOM      5  C   UNL     1      -5.747  22.838 -21.768  0.00  0.00    -0.090 C 
ATOM      6  C   UNL     1      -7.136  22.611 -21.306  0.00  0.00    +0.000 C 
ATOM      7  C   UNL     1      -7.822  21.582 -21.770  0.00  0.00    -0.030 C 
ATOM      8  C   UNL     1      -7.281  20.584 -22.749  0.00  0.00    +0.020 C 
ATOM      9  C   UNL     1      -6.069  21.133 -23.504  0.00  0.00    +0.010 C 
ATOM     10  C   UNL     1      -6.865  19.320 -21.994  0.00  0.00    +0.030 C 
ATOM     11  C   UNL     1      -3.697  25.834 -22.383  0.00  0.00    +0.040 C 
ATOM     12  C   UNL     1      -5.077  21.708 -22.491  0.00  0.00    +0.040 C 
ENDROOT
BRANCH   1  13
ATOM     13  O   UNL     1      -3.618  21.320 -24.371  0.00  0.00    -0.320 OA
BRANCH  13  14
ATOM     14  C   UNL     1      -2.374  21.177 -24.858  0.00  0.00    +0.460 C 
ATOM     15  O   UNL     1      -1.421  21.460 -24.174  0.00  0.00    -0.500 OA
BRANCH  14  16
ATOM     16  C   UNL     1      -2.170  20.663 -26.261  0.00  0.00    -0.050 C 
ATOM     17  C   UNL     1      -3.323  21.135 -27.150  0.00  0.00    +0.060 C 
ATOM     18  C   UNL     1      -0.848  21.198 -26.812  0.00  0.00    +0.050 C 
BRANCH  16  20
ATOM     19  C   UNL     1      -1.474  18.625 -27.526  0.00  0.00    +0.030 C 
ATOM     20  C   UNL     1      -2.133  19.134 -26.242  0.00  0.00    +0.040 C 
ENDBRANCH  16  20
ENDBRANCH  14  16
ENDBRANCH  13  14
ENDBRANCH   1  13
BRANCH   9  21
ATOM     21  C   UNL     1      -5.405  20.006 -24.297  0.00  0.00    +0.060 C 
BRANCH  21  22
ATOM     22  C   UNL     1      -6.425  19.384 -25.252  0.00  0.00    +0.040 C 
BRANCH  22  23
ATOM     23  C   UNL     1      -6.177  17.877 -25.351  0.00  0.00    +0.190 C 
ATOM     24  C   UNL     1      -5.040  17.611 -26.342  0.00  0.00    +0.050 C 
ATOM     25  C   UNL     1      -4.829  16.100 -26.478  0.00  0.00    +0.180 C 
ATOM     26  C   UNL     1      -6.125  15.461 -26.989  0.00  0.00    +0.020 C 
ATOM     27  C   UNL     1      -7.261  15.899 -26.093  0.00  0.00    +0.490 C 
ATOM     28  O   UNL     1      -8.035  15.094 -25.631  0.00  0.00    -0.450 OA
ATOM     29  O   UNL     1      -7.385  17.215 -25.820  0.00  0.00    -0.370 OA
BRANCH  25  30
ATOM     30  O   UNL     1      -4.491  15.547 -25.204  0.00  0.00    -0.560 OA
ATOM     31  H   UNL     1      -5.004  15.911 -24.469  0.00  0.00    +0.390 HD
ENDBRANCH  25  30
ENDBRANCH  22  23
ENDBRANCH  21  22
ENDBRANCH   9  21
TORSDOF 8
ENDMDL
MODEL 2
REMARK VINA RESULT:      -7.0     10.503     14.063
REMARK  Name = ZINC000003780893
REMARK  13 active torsions:
REMARK  status: ('A' for Active; 'I' for Inactive)
REMARK    1  A    between atoms: C1_1  and  C2_2
REMARK    2  A    between atoms: C2_2  and  C3_3
REMARK    3  A    between atoms: C3_3  and  C4_4
REMARK    4  A    between atoms: C3_3  and  C5_5
REMARK    5  A    between atoms: C3_3  and  C6_6
REMARK    6  A    between atoms: C6_6  and  O8_8
REMARK    7  A    between atoms: O8_8  and  C9_9
REMARK    8  A    between atoms: C12_12  and  C14_14
REMARK    9  A    between atoms: C19_19  and  C21_21
REMARK   10  A    between atoms: C22_22  and  C24_24
REMARK   11  A    between atoms: C24_24  and  C25_25
REMARK   12  A    between atoms: C25_25  and  C26_26
REMARK   13  A    between atoms: C29_29  and  O31_31
REMARK                            x       y       z     vdW  Elec       q    Type
REMARK                         _______ _______ _______ _____ _____    ______ ____
ROOT
ATOM      1  C   UNL     1      -1.770  15.544 -34.267  0.00  0.00    +0.170 C 
ATOM      2  C   UNL     1      -0.781  16.641 -33.877  0.00  0.00    +0.020 C 
ATOM      3  C   UNL     1      -1.341  17.987 -34.357  0.00  0.00    +0.020 C 
ATOM      4  C   UNL     1      -1.462  17.926 -35.858  0.00  0.00    -0.020 C 
ATOM      5  C   UNL     1      -1.735  16.790 -36.473  0.00  0.00    -0.090 C 
ATOM      6  C   UNL     1      -1.734  16.752 -37.953  0.00  0.00    +0.000 C 
ATOM      7  C   UNL     1      -1.678  15.591 -38.580  0.00  0.00    -0.030 C 
ATOM      8  C   UNL     1      -1.630  14.263 -37.887  0.00  0.00    +0.020 C 
ATOM      9  C   UNL     1      -1.173  14.401 -36.433  0.00  0.00    +0.010 C 
ATOM     10  C   UNL     1      -3.026  13.636 -37.911  0.00  0.00    +0.030 C 
ATOM     11  C   UNL     1      -0.389  19.117 -33.958  0.00  0.00    +0.040 C 
ATOM     12  C   UNL     1      -1.999  15.498 -35.760  0.00  0.00    +0.040 C 
ENDROOT
BRANCH   1  13
ATOM     13  O   UNL     1      -1.247  14.261 -33.831  0.00  0.00    -0.320 OA
BRANCH  13  14
ATOM     14  C   UNL     1      -1.213  14.036 -32.508  0.00  0.00    +0.460 C 
ATOM     15  O   UNL     1      -2.209  14.193 -31.842  0.00  0.00    -0.500 OA
BRANCH  14  16
ATOM     16  C   UNL     1       0.069  13.588 -31.853  0.00  0.00    -0.050 C 
ATOM     17  C   UNL     1      -0.052  13.744 -30.336  0.00  0.00    +0.060 C 
ATOM     18  C   UNL     1       0.331  12.121 -32.196  0.00  0.00    +0.050 C 
BRANCH  16  20
ATOM     19  C   UNL     1       2.130  13.599 -33.265  0.00  0.00    +0.030 C 
ATOM     20  C   UNL     1       1.228  14.445 -32.364  0.00  0.00    +0.040 C 
ENDBRANCH  16  20
ENDBRANCH  14  16
ENDBRANCH  13  14
ENDBRANCH   1  13
BRANCH   9  21
ATOM     21  C   UNL     1      -1.379  13.074 -35.702  0.00  0.00    +0.060 C 
BRANCH  21  22
ATOM     22  C   UNL     1      -0.145  12.190 -35.890  0.00  0.00    +0.040 C 
BRANCH  22  23
ATOM     23  C   UNL     1      -0.543  10.909 -36.626  0.00  0.00    +0.190 C 
ATOM     24  C   UNL     1       0.466   9.802 -36.308  0.00  0.00    +0.050 C 
ATOM     25  C   UNL     1       0.093   8.536 -37.087  0.00  0.00    +0.180 C 
ATOM     26  C   UNL     1       0.120   8.850 -38.587  0.00  0.00    +0.020 C 
ATOM     27  C   UNL     1      -0.742  10.067 -38.837  0.00  0.00    +0.490 C 
ATOM     28  O   UNL     1      -1.582  10.066 -39.706  0.00  0.00    -0.450 OA
ATOM     29  O   UNL     1      -0.550  11.154 -38.060  0.00  0.00    -0.370 OA
BRANCH  25  30
ATOM     30  O   UNL     1      -1.217   8.110 -36.708  0.00  0.00    -0.560 OA
ATOM     31  H   UNL     1      -1.262   7.713 -35.827  0.00  0.00    +0.390 HD
ENDBRANCH  25  30
ENDBRANCH  22  23
ENDBRANCH  21  22
ENDBRANCH   9  21
TORSDOF 8
ENDMDL
MODEL 3
REMARK VINA RESULT:      -7.0     12.191     16.634
REMARK  Name = ZINC000003780893
REMARK  13 active torsions:
REMARK  status: ('A' for Active; 'I' for Inactive)
REMARK    1  A    between atoms: C1_1  and  C2_2
REMARK    2  A    between atoms: C2_2  and  C3_3
REMARK    3  A    between atoms: C3_3  and  C4_4
REMARK    4  A    between atoms: C3_3  and  C5_5
REMARK    5  A    between atoms: C3_3  and  C6_6
REMARK    6  A    between atoms: C6_6  and  O8_8
REMARK    7  A    between atoms: O8_8  and  C9_9
REMARK    8  A    between atoms: C12_12  and  C14_14
REMARK    9  A    between atoms: C19_19  and  C21_21
REMARK   10  A    between atoms: C22_22  and  C24_24
REMARK   11  A    between atoms: C24_24  and  C25_25
REMARK   12  A    between atoms: C25_25  and  C26_26
REMARK   13  A    between atoms: C29_29  and  O31_31
REMARK                            x       y       z     vdW  Elec       q    Type
REMARK                         _______ _______ _______ _____ _____    ______ ____
ROOT
ATOM      1  C   UNL     1      -1.100  11.802 -39.300  0.00  0.00    +0.170 C 
ATOM      2  C   UNL     1      -2.227  11.292 -40.196  0.00  0.00    +0.020 C 
ATOM      3  C   UNL     1      -2.050  11.907 -41.592  0.00  0.00    +0.020 C 
ATOM      4  C   UNL     1      -2.154  13.404 -41.451  0.00  0.00    -0.020 C 
ATOM      5  C   UNL     1      -1.743  14.014 -40.355  0.00  0.00    -0.090 C 
ATOM      6  C   UNL     1      -1.967  15.472 -40.213  0.00  0.00    +0.000 C 
ATOM      7  C   UNL     1      -1.869  16.038 -39.023  0.00  0.00    -0.030 C 
ATOM      8  C   UNL     1      -1.524  15.299 -37.766  0.00  0.00    +0.020 C 
ATOM      9  C   UNL     1      -1.769  13.795 -37.910  0.00  0.00    +0.010 C 
ATOM     10  C   UNL     1      -0.048  15.533 -37.438  0.00  0.00    +0.030 C 
ATOM     11  C   UNL     1      -3.148  11.396 -42.527  0.00  0.00    +0.040 C 
ATOM     12  C   UNL     1      -1.101  13.309 -39.197  0.00  0.00    +0.040 C 
ENDROOT
BRANCH   1  13
ATOM     13  O   UNL     1      -1.262  11.239 -37.971  0.00  0.00    -0.320 OA
BRANCH  13  14
ATOM     14  C   UNL     1      -1.399   9.906 -37.888  0.00  0.00    +0.460 C 
ATOM     15  O   UNL     1      -2.398   9.373 -38.311  0.00  0.00    -0.500 OA
BRANCH  14  16
ATOM     16  C   UNL     1      -0.307   9.074 -37.267  0.00  0.00    -0.050 C 
ATOM     17  C   UNL     1       0.290   9.824 -36.074  0.00  0.00    +0.060 C 
ATOM     18  C   UNL     1      -0.888   7.741 -36.792  0.00  0.00    +0.050 C 
BRANCH  16  20
ATOM     19  C   UNL     1       2.112   8.540 -37.590  0.00  0.00    +0.030 C 
ATOM     20  C   UNL     1       0.787   8.812 -38.304  0.00  0.00    +0.040 C 
ENDBRANCH  16  20
ENDBRANCH  14  16
ENDBRANCH  13  14
ENDBRANCH   1  13
BRANCH   9  21
ATOM     21  C   UNL     1      -1.173  13.061 -36.708  0.00  0.00    +0.060 C 
BRANCH  21  22
ATOM     22  C   UNL     1      -1.991  13.382 -35.456  0.00  0.00    +0.040 C 
BRANCH  22  23
ATOM     23  C   UNL     1      -1.052  13.535 -34.258  0.00  0.00    +0.190 C 
ATOM     24  C   UNL     1       0.373  13.162 -34.675  0.00  0.00    +0.050 C 
ATOM     25  C   UNL     1       1.302  13.265 -33.461  0.00  0.00    +0.180 C 
ATOM     26  C   UNL     1       0.808  12.304 -32.374  0.00  0.00    +0.020 C 
ATOM     27  C   UNL     1      -0.657  12.579 -32.121  0.00  0.00    +0.490 C 
ATOM     28  O   UNL     1      -1.076  12.731 -30.998  0.00  0.00    -0.450 OA
ATOM     29  O   UNL     1      -1.484  12.653 -33.185  0.00  0.00    -0.370 OA
BRANCH  25  30
ATOM     30  O   UNL     1       1.287  14.604 -32.961  0.00  0.00    -0.560 OA
ATOM     31  H   UNL     1       0.419  14.900 -32.654  0.00  0.00    +0.390 HD
ENDBRANCH  25  30
ENDBRANCH  22  23
ENDBRANCH  21  22
ENDBRANCH   9  21
TORSDOF 8
ENDMDL
MODEL 4
REMARK VINA RESULT:      -6.9     25.918     29.354
REMARK  Name = ZINC000003780893
REMARK  13 active torsions:
REMARK  status: ('A' for Active; 'I' for Inactive)
REMARK    1  A    between atoms: C1_1  and  C2_2
REMARK    2  A    between atoms: C2_2  and  C3_3
REMARK    3  A    between atoms: C3_3  and  C4_4
REMARK    4  A    between atoms: C3_3  and  C5_5
REMARK    5  A    between atoms: C3_3  and  C6_6
REMARK    6  A    between atoms: C6_6  and  O8_8
REMARK    7  A    between atoms: O8_8  and  C9_9
REMARK    8  A    between atoms: C12_12  and  C14_14
REMARK    9  A    between atoms: C19_19  and  C21_21
REMARK   10  A    between atoms: C22_22  and  C24_24
REMARK   11  A    between atoms: C24_24  and  C25_25
REMARK   12  A    between atoms: C25_25  and  C26_26
REMARK   13  A    between atoms: C29_29  and  O31_31
REMARK                            x       y       z     vdW  Elec       q    Type
REMARK                         _______ _______ _______ _____ _____    ______ ____
ROOT
ATOM      1  C   UNL     1       7.129  -3.623 -36.795  0.00  0.00    +0.170 C 
ATOM      2  C   UNL     1       8.477  -4.310 -36.587  0.00  0.00    +0.020 C 
ATOM      3  C   UNL     1       9.190  -4.395 -37.944  0.00  0.00    +0.020 C 
ATOM      4  C   UNL     1       8.334  -5.229 -38.862  0.00  0.00    -0.020 C 
ATOM      5  C   UNL     1       7.018  -5.223 -38.756  0.00  0.00    -0.090 C 
ATOM      6  C   UNL     1       6.221  -6.141 -39.602  0.00  0.00    +0.000 C 
ATOM      7  C   UNL     1       4.961  -6.390 -39.295  0.00  0.00    -0.030 C 
ATOM      8  C   UNL     1       4.245  -5.783 -38.126  0.00  0.00    +0.020 C 
ATOM      9  C   UNL     1       5.225  -5.249 -37.079  0.00  0.00    +0.010 C 
ATOM     10  C   UNL     1       3.369  -4.631 -38.621  0.00  0.00    +0.030 C 
ATOM     11  C   UNL     1      10.560  -5.055 -37.769  0.00  0.00    +0.040 C 
ATOM     12  C   UNL     1       6.263  -4.371 -37.780  0.00  0.00    +0.040 C 
ENDROOT
BRANCH   1  13
ATOM     13  O   UNL     1       6.437  -3.547 -35.521  0.00  0.00    -0.320 OA
BRANCH  13  14
ATOM     14  C   UNL     1       7.159  -3.159 -34.458  0.00  0.00    +0.460 C 
ATOM     15  O   UNL     1       7.647  -2.054 -34.429  0.00  0.00    -0.500 OA
BRANCH  14  16
ATOM     16  C   UNL     1       7.362  -4.103 -33.300  0.00  0.00    -0.050 C 
ATOM     17  C   UNL     1       6.906  -5.507 -33.701  0.00  0.00    +0.060 C 
ATOM     18  C   UNL     1       8.844  -4.135 -32.922  0.00  0.00    +0.050 C 
BRANCH  16  20
ATOM     19  C   UNL     1       5.148  -4.253 -32.153  0.00  0.00    +0.030 C 
ATOM     20  C   UNL     1       6.541  -3.623 -32.102  0.00  0.00    +0.040 C 
ENDBRANCH  16  20
ENDBRANCH  14  16
ENDBRANCH  13  14
ENDBRANCH   1  13
BRANCH   9  21
ATOM     21  C   UNL     1       4.466  -4.424 -36.039  0.00  0.00    +0.060 C 
BRANCH  21  22
ATOM     22  C   UNL     1       3.437  -5.311 -35.336  0.00  0.00    +0.040 C 
BRANCH  22  23
ATOM     23  C   UNL     1       2.168  -4.502 -35.063  0.00  0.00    +0.190 C 
ATOM     24  C   UNL     1       0.989  -5.132 -35.810  0.00  0.00    +0.050 C 
ATOM     25  C   UNL     1      -0.269  -4.290 -35.576  0.00  0.00    +0.180 C 
ATOM     26  C   UNL     1      -0.021  -2.870 -36.098  0.00  0.00    +0.020 C 
ATOM     27  C   UNL     1       1.256  -2.349 -35.479  0.00  0.00    +0.490 C 
ATOM     28  O   UNL     1       1.295  -1.261 -34.955  0.00  0.00    -0.450 OA
ATOM     29  O   UNL     1       2.353  -3.135 -35.525  0.00  0.00    -0.370 OA
BRANCH  25  30
ATOM     30  O   UNL     1      -0.561  -4.245 -34.178  0.00  0.00    -0.560 OA
ATOM     31  H   UNL     1      -0.610  -3.349 -33.816  0.00  0.00    +0.390 HD
ENDBRANCH  25  30
ENDBRANCH  22  23
ENDBRANCH  21  22
ENDBRANCH   9  21
TORSDOF 8
ENDMDL
MODEL 5
REMARK VINA RESULT:      -6.9     25.908     30.490
REMARK  Name = ZINC000003780893
REMARK  13 active torsions:
REMARK  status: ('A' for Active; 'I' for Inactive)
REMARK    1  A    between atoms: C1_1  and  C2_2
REMARK    2  A    between atoms: C2_2  and  C3_3
REMARK    3  A    between atoms: C3_3  and  C4_4
REMARK    4  A    between atoms: C3_3  and  C5_5
REMARK    5  A    between atoms: C3_3  and  C6_6
REMARK    6  A    between atoms: C6_6  and  O8_8
REMARK    7  A    between atoms: O8_8  and  C9_9
REMARK    8  A    between atoms: C12_12  and  C14_14
REMARK    9  A    between atoms: C19_19  and  C21_21
REMARK   10  A    between atoms: C22_22  and  C24_24
REMARK   11  A    between atoms: C24_24  and  C25_25
REMARK   12  A    between atoms: C25_25  and  C26_26
REMARK   13  A    between atoms: C29_29  and  O31_31
REMARK                            x       y       z     vdW  Elec       q    Type
REMARK                         _______ _______ _______ _____ _____    ______ ____
ROOT
ATOM      1  C   UNL     1       8.403  -6.250 -36.762  0.00  0.00    +0.170 C 
ATOM      2  C   UNL     1       8.483  -6.180 -38.286  0.00  0.00    +0.020 C 
ATOM      3  C   UNL     1       9.725  -6.959 -38.740  0.00  0.00    +0.020 C 
ATOM      4  C   UNL     1      10.933  -6.289 -38.139  0.00  0.00    -0.020 C 
ATOM      5  C   UNL     1      10.866  -5.693 -36.962  0.00  0.00    -0.090 C 
ATOM      6  C   UNL     1      12.045  -4.950 -36.461  0.00  0.00    +0.000 C 
ATOM      7  C   UNL     1      11.906  -4.090 -35.468  0.00  0.00    -0.030 C 
ATOM      8  C   UNL     1      10.606  -3.808 -34.776  0.00  0.00    +0.020 C 
ATOM      9  C   UNL     1       9.409  -4.237 -35.627  0.00  0.00    +0.010 C 
ATOM     10  C   UNL     1      10.571  -4.571 -33.450  0.00  0.00    +0.030 C 
ATOM     11  C   UNL     1       9.823  -6.935 -40.266  0.00  0.00    +0.040 C 
ATOM     12  C   UNL     1       9.635  -5.672 -36.107  0.00  0.00    +0.040 C 
ENDROOT
BRANCH   1  13
ATOM     13  O   UNL     1       7.238  -5.505 -36.316  0.00  0.00    -0.320 OA
BRANCH  13  14
ATOM     14  C   UNL     1       6.037  -6.058 -36.548  0.00  0.00    +0.460 C 
ATOM     15  O   UNL     1       5.824  -7.201 -36.221  0.00  0.00    -0.500 OA
BRANCH  14  16
ATOM     16  C   UNL     1       4.954  -5.252 -37.219  0.00  0.00    -0.050 C 
ATOM     17  C   UNL     1       5.374  -3.782 -37.276  0.00  0.00    +0.060 C 
ATOM     18  C   UNL     1       4.733  -5.775 -38.639  0.00  0.00    +0.050 C 
BRANCH  16  20
ATOM     19  C   UNL     1       2.940  -4.028 -36.390  0.00  0.00    +0.030 C 
ATOM     20  C   UNL     1       3.655  -5.380 -36.421  0.00  0.00    +0.040 C 
ENDBRANCH  16  20
ENDBRANCH  14  16
ENDBRANCH  13  14
ENDBRANCH   1  13
BRANCH   9  21
ATOM     21  C   UNL     1       8.132  -4.166 -34.789  0.00  0.00    +0.060 C 
BRANCH  21  22
ATOM     22  C   UNL     1       7.752  -2.702 -34.559  0.00  0.00    +0.040 C 
BRANCH  22  23
ATOM     23  C   UNL     1       6.625  -2.623 -33.529  0.00  0.00    +0.190 C 
ATOM     24  C   UNL     1       6.411  -4.002 -32.898  0.00  0.00    +0.050 C 
ATOM     25  C   UNL     1       5.246  -3.931 -31.905  0.00  0.00    +0.180 C 
ATOM     26  C   UNL     1       3.980  -3.498 -32.653  0.00  0.00    +0.020 C 
ATOM     27  C   UNL     1       4.285  -2.229 -33.417  0.00  0.00    +0.490 C 
ATOM     28  O   UNL     1       3.557  -1.268 -33.342  0.00  0.00    -0.450 OA
ATOM     29  O   UNL     1       5.396  -2.199 -34.184  0.00  0.00    -0.370 OA
BRANCH  25  30
ATOM     30  O   UNL     1       5.548  -2.981 -30.881  0.00  0.00    -0.560 OA
ATOM     31  H   UNL     1       5.060  -2.149 -30.961  0.00  0.00    +0.390 HD
ENDBRANCH  25  30
ENDBRANCH  22  23
ENDBRANCH  21  22
ENDBRANCH   9  21
TORSDOF 8
ENDMDL
MODEL 6
REMARK VINA RESULT:      -6.8      9.179     12.897
REMARK  Name = ZINC000003780893
REMARK  13 active torsions:
REMARK  status: ('A' for Active; 'I' for Inactive)
REMARK    1  A    between atoms: C1_1  and  C2_2
REMARK    2  A    between atoms: C2_2  and  C3_3
REMARK    3  A    between atoms: C3_3  and  C4_4
REMARK    4  A    between atoms: C3_3  and  C5_5
REMARK    5  A    between atoms: C3_3  and  C6_6
REMARK    6  A    between atoms: C6_6  and  O8_8
REMARK    7  A    between atoms: O8_8  and  C9_9
REMARK    8  A    between atoms: C12_12  and  C14_14
REMARK    9  A    between atoms: C19_19  and  C21_21
REMARK   10  A    between atoms: C22_22  and  C24_24
REMARK   11  A    between atoms: C24_24  and  C25_25
REMARK   12  A    between atoms: C25_25  and  C26_26
REMARK   13  A    between atoms: C29_29  and  O31_31
REMARK                            x       y       z     vdW  Elec       q    Type
REMARK                         _______ _______ _______ _____ _____    ______ ____
ROOT
ATOM      1  C   UNL     1      -1.121  14.308 -35.484  0.00  0.00    +0.170 C 
ATOM      2  C   UNL     1      -2.232  13.336 -35.875  0.00  0.00    +0.020 C 
ATOM      3  C   UNL     1      -2.428  13.413 -37.395  0.00  0.00    +0.020 C 
ATOM      4  C   UNL     1      -2.847  14.820 -37.734  0.00  0.00    -0.020 C 
ATOM      5  C   UNL     1      -2.414  15.848 -37.026  0.00  0.00    -0.090 C 
ATOM      6  C   UNL     1      -2.938  17.201 -37.322  0.00  0.00    +0.000 C 
ATOM      7  C   UNL     1      -2.781  18.173 -36.441  0.00  0.00    -0.030 C 
ATOM      8  C   UNL     1      -2.078  18.012 -35.128  0.00  0.00    +0.020 C 
ATOM      9  C   UNL     1      -1.993  16.543 -34.709  0.00  0.00    +0.010 C 
ATOM     10  C   UNL     1      -0.661  18.577 -35.248  0.00  0.00    +0.030 C 
ATOM     11  C   UNL     1      -3.517  12.429 -37.828  0.00  0.00    +0.040 C 
ATOM     12  C   UNL     1      -1.450  15.727 -35.884  0.00  0.00    +0.040 C 
ENDROOT
BRANCH   1  13
ATOM     13  O   UNL     1      -0.933  14.256 -34.045  0.00  0.00    -0.320 OA
BRANCH  13  14
ATOM     14  C   UNL     1      -0.847  13.038 -33.486  0.00  0.00    +0.460 C 
ATOM     15  O   UNL     1      -1.828  12.523 -33.005  0.00  0.00    -0.500 OA
BRANCH  14  16
ATOM     16  C   UNL     1       0.475  12.314 -33.459  0.00  0.00    -0.050 C 
ATOM     17  C   UNL     1       0.800  11.899 -32.022  0.00  0.00    +0.060 C 
ATOM     18  C   UNL     1       0.392  11.068 -34.343  0.00  0.00    +0.050 C 
BRANCH  16  20
ATOM     19  C   UNL     1       2.442  13.714 -32.817  0.00  0.00    +0.030 C 
ATOM     20  C   UNL     1       1.574  13.239 -33.984  0.00  0.00    +0.040 C 
ENDBRANCH  16  20
ENDBRANCH  14  16
ENDBRANCH  13  14
ENDBRANCH   1  13
BRANCH   9  21
ATOM     21  C   UNL     1      -1.058  16.405 -33.507  0.00  0.00    +0.060 C 
BRANCH  21  22
ATOM     22  C   UNL     1      -1.818  16.757 -32.227  0.00  0.00    +0.040 C 
BRANCH  22  23
ATOM     23  C   UNL     1      -0.873  16.652 -31.028  0.00  0.00    +0.190 C 
ATOM     24  C   UNL     1       0.483  17.263 -31.391  0.00  0.00    +0.050 C 
ATOM     25  C   UNL     1       1.442  17.110 -30.206  0.00  0.00    +0.180 C 
ATOM     26  C   UNL     1       1.610  15.619 -29.892  0.00  0.00    +0.020 C 
ATOM     27  C   UNL     1       0.237  15.008 -29.724  0.00  0.00    +0.490 C 
ATOM     28  O   UNL     1      -0.024  14.321 -28.765  0.00  0.00    -0.450 OA
ATOM     29  O   UNL     1      -0.689  15.252 -30.674  0.00  0.00    -0.370 OA
BRANCH  25  30
ATOM     30  O   UNL     1       0.906  17.784 -29.066  0.00  0.00    -0.560 OA
ATOM     31  H   UNL     1       0.308  17.241 -28.533  0.00  0.00    +0.390 HD
ENDBRANCH  25  30
ENDBRANCH  22  23
ENDBRANCH  21  22
ENDBRANCH   9  21
TORSDOF 8
ENDMDL
MODEL 7
REMARK VINA RESULT:      -6.8      9.469     12.708
REMARK  Name = ZINC000003780893
REMARK  13 active torsions:
REMARK  status: ('A' for Active; 'I' for Inactive)
REMARK    1  A    between atoms: C1_1  and  C2_2
REMARK    2  A    between atoms: C2_2  and  C3_3
REMARK    3  A    between atoms: C3_3  and  C4_4
REMARK    4  A    between atoms: C3_3  and  C5_5
REMARK    5  A    between atoms: C3_3  and  C6_6
REMARK    6  A    between atoms: C6_6  and  O8_8
REMARK    7  A    between atoms: O8_8  and  C9_9
REMARK    8  A    between atoms: C12_12  and  C14_14
REMARK    9  A    between atoms: C19_19  and  C21_21
REMARK   10  A    between atoms: C22_22  and  C24_24
REMARK   11  A    between atoms: C24_24  and  C25_25
REMARK   12  A    between atoms: C25_25  and  C26_26
REMARK   13  A    between atoms: C29_29  and  O31_31
REMARK                            x       y       z     vdW  Elec       q    Type
REMARK                         _______ _______ _______ _____ _____    ______ ____
ROOT
ATOM      1  C   UNL     1      -1.150  15.746 -32.618  0.00  0.00    +0.170 C 
ATOM      2  C   UNL     1       0.037  15.832 -31.661  0.00  0.00    +0.020 C 
ATOM      3  C   UNL     1      -0.196  17.012 -30.708  0.00  0.00    +0.020 C 
ATOM      4  C   UNL     1      -0.266  18.267 -31.540  0.00  0.00    -0.020 C 
ATOM      5  C   UNL     1      -0.755  18.244 -32.766  0.00  0.00    -0.090 C 
ATOM      6  C   UNL     1      -0.701  19.474 -33.589  0.00  0.00    +0.000 C 
ATOM      7  C   UNL     1      -0.874  19.399 -34.896  0.00  0.00    -0.030 C 
ATOM      8  C   UNL     1      -1.144  18.123 -35.636  0.00  0.00    +0.020 C 
ATOM      9  C   UNL     1      -0.727  16.898 -34.819  0.00  0.00    +0.010 C 
ATOM     10  C   UNL     1      -2.641  18.031 -35.941  0.00  0.00    +0.030 C 
ATOM     11  C   UNL     1       0.963  17.113 -29.713  0.00  0.00    +0.040 C 
ATOM     12  C   UNL     1      -1.322  17.017 -33.415  0.00  0.00    +0.040 C 
ENDROOT
BRANCH   1  13
ATOM     13  O   UNL     1      -0.937  14.640 -33.535  0.00  0.00    -0.320 OA
BRANCH  13  14
ATOM     14  C   UNL     1      -0.787  13.420 -32.993  0.00  0.00    +0.460 C 
ATOM     15  O   UNL     1      -1.649  12.965 -32.280  0.00  0.00    -0.500 OA
BRANCH  14  16
ATOM     16  C   UNL     1       0.459  12.620 -33.274  0.00  0.00    -0.050 C 
ATOM     17  C   UNL     1       1.044  12.107 -31.957  0.00  0.00    +0.060 C 
ATOM     18  C   UNL     1       0.110  11.433 -34.174  0.00  0.00    +0.050 C 
BRANCH  16  20
ATOM     19  C   UNL     1       2.662  13.773 -33.035  0.00  0.00    +0.030 C 
ATOM     20  C   UNL     1       1.487  13.508 -33.978  0.00  0.00    +0.040 C 
ENDBRANCH  16  20
ENDBRANCH  14  16
ENDBRANCH  13  14
ENDBRANCH   1  13
BRANCH   9  21
ATOM     21  C   UNL     1      -1.247  15.629 -35.497  0.00  0.00    +0.060 C 
BRANCH  21  22
ATOM     22  C   UNL     1      -0.355  15.286 -36.691  0.00  0.00    +0.040 C 
BRANCH  22  23
ATOM     23  C   UNL     1      -1.090  14.311 -37.613  0.00  0.00    +0.190 C 
ATOM     24  C   UNL     1      -2.602  14.475 -37.429  0.00  0.00    +0.050 C 
ATOM     25  C   UNL     1      -3.334  13.462 -38.315  0.00  0.00    +0.180 C 
ATOM     26  C   UNL     1      -2.910  12.046 -37.908  0.00  0.00    +0.020 C 
ATOM     27  C   UNL     1      -1.399  11.977 -37.921  0.00  0.00    +0.490 C 
ATOM     28  O   UNL     1      -0.823  11.081 -38.490  0.00  0.00    -0.450 OA
ATOM     29  O   UNL     1      -0.712  12.946 -37.280  0.00  0.00    -0.370 OA
BRANCH  25  30
ATOM     30  O   UNL     1      -2.993  13.691 -39.684  0.00  0.00    -0.560 OA
ATOM     31  H   UNL     1      -2.578  12.932 -40.118  0.00  0.00    +0.390 HD
ENDBRANCH  25  30
ENDBRANCH  22  23
ENDBRANCH  21  22
ENDBRANCH   9  21
TORSDOF 8
ENDMDL
MODEL 8
REMARK VINA RESULT:      -6.7      1.998      6.827
REMARK  Name = ZINC000003780893
REMARK  13 active torsions:
REMARK  status: ('A' for Active; 'I' for Inactive)
REMARK    1  A    between atoms: C1_1  and  C2_2
REMARK    2  A    between atoms: C2_2  and  C3_3
REMARK    3  A    between atoms: C3_3  and  C4_4
REMARK    4  A    between atoms: C3_3  and  C5_5
REMARK    5  A    between atoms: C3_3  and  C6_6
REMARK    6  A    between atoms: C6_6  and  O8_8
REMARK    7  A    between atoms: O8_8  and  C9_9
REMARK    8  A    between atoms: C12_12  and  C14_14
REMARK    9  A    between atoms: C19_19  and  C21_21
REMARK   10  A    between atoms: C22_22  and  C24_24
REMARK   11  A    between atoms: C24_24  and  C25_25
REMARK   12  A    between atoms: C25_25  and  C26_26
REMARK   13  A    between atoms: C29_29  and  O31_31
REMARK                            x       y       z     vdW  Elec       q    Type
REMARK                         _______ _______ _______ _____ _____    ______ ____
ROOT
ATOM      1  C   UNL     1      -2.731  17.841 -26.779  0.00  0.00    +0.170 C 
ATOM      2  C   UNL     1      -2.679  17.663 -28.295  0.00  0.00    +0.020 C 
ATOM      3  C   UNL     1      -1.211  17.733 -28.739  0.00  0.00    +0.020 C 
ATOM      4  C   UNL     1      -0.684  19.096 -28.371  0.00  0.00    -0.020 C 
ATOM      5  C   UNL     1      -1.129  19.732 -27.302  0.00  0.00    -0.090 C 
ATOM      6  C   UNL     1      -0.668  21.115 -27.041  0.00  0.00    +0.000 C 
ATOM      7  C   UNL     1      -1.329  21.877 -26.188  0.00  0.00    -0.030 C 
ATOM      8  C   UNL     1      -2.541  21.431 -25.426  0.00  0.00    +0.020 C 
ATOM      9  C   UNL     1      -3.202  20.215 -26.079  0.00  0.00    +0.010 C 
ATOM     10  C   UNL     1      -2.127  21.065 -24.000  0.00  0.00    +0.030 C 
ATOM     11  C   UNL     1      -1.116  17.530 -30.252  0.00  0.00    +0.040 C 
ATOM     12  C   UNL     1      -2.131  19.157 -26.346  0.00  0.00    +0.040 C 
ENDROOT
BRANCH   1  13
ATOM     13  O   UNL     1      -4.117  17.789 -26.346  0.00  0.00    -0.320 OA
BRANCH  13  14
ATOM     14  C   UNL     1      -4.760  16.620 -26.500  0.00  0.00    +0.460 C 
ATOM     15  O   UNL     1      -4.197  15.583 -26.243  0.00  0.00    -0.500 OA
BRANCH  14  16
ATOM     16  C   UNL     1      -6.183  16.604 -26.994  0.00  0.00    -0.050 C 
ATOM     17  C   UNL     1      -7.005  17.636 -26.218  0.00  0.00    +0.060 C 
ATOM     18  C   UNL     1      -6.210  16.946 -28.484  0.00  0.00    +0.050 C 
BRANCH  16  20
ATOM     19  C   UNL     1      -8.234  15.345 -26.321  0.00  0.00    +0.030 C 
ATOM     20  C   UNL     1      -6.780  15.211 -26.780  0.00  0.00    +0.040 C 
ENDBRANCH  16  20
ENDBRANCH  14  16
ENDBRANCH  13  14
ENDBRANCH   1  13
BRANCH   9  21
ATOM     21  C   UNL     1      -4.270  19.648 -25.143  0.00  0.00    +0.060 C 
BRANCH  21  22
ATOM     22  C   UNL     1      -5.416  20.652 -25.008  0.00  0.00    +0.040 C 
BRANCH  22  23
ATOM     23  C   UNL     1      -5.856  20.729 -23.545  0.00  0.00    +0.190 C 
ATOM     24  C   UNL     1      -7.327  20.320 -23.431  0.00  0.00    +0.050 C 
ATOM     25  C   UNL     1      -7.778  20.448 -21.972  0.00  0.00    +0.180 C 
ATOM     26  C   UNL     1      -7.607  21.904 -21.525  0.00  0.00    +0.020 C 
ATOM     27  C   UNL     1      -6.189  22.334 -21.826  0.00  0.00    +0.490 C 
ATOM     28  O   UNL     1      -5.511  22.876 -20.985  0.00  0.00    -0.450 OA
ATOM     29  O   UNL     1      -5.699  22.093 -23.061  0.00  0.00    -0.370 OA
BRANCH  25  30
ATOM     30  O   UNL     1      -6.981  19.596 -21.148  0.00  0.00    -0.560 OA
ATOM     31  H   UNL     1      -7.381  18.732 -20.973  0.00  0.00    +0.390 HD
ENDBRANCH  25  30
ENDBRANCH  22  23
ENDBRANCH  21  22
ENDBRANCH   9  21
TORSDOF 8
ENDMDL
MODEL 9
REMARK VINA RESULT:      -6.7     24.234     27.935
REMARK  Name = ZINC000003780893
REMARK  13 active torsions:
REMARK  status: ('A' for Active; 'I' for Inactive)
REMARK    1  A    between atoms: C1_1  and  C2_2
REMARK    2  A    between atoms: C2_2  and  C3_3
REMARK    3  A    between atoms: C3_3  and  C4_4
REMARK    4  A    between atoms: C3_3  and  C5_5
REMARK    5  A    between atoms: C3_3  and  C6_6
REMARK    6  A    between atoms: C6_6  and  O8_8
REMARK    7  A    between atoms: O8_8  and  C9_9
REMARK    8  A    between atoms: C12_12  and  C14_14
REMARK    9  A    between atoms: C19_19  and  C21_21
REMARK   10  A    between atoms: C22_22  and  C24_24
REMARK   11  A    between atoms: C24_24  and  C25_25
REMARK   12  A    between atoms: C25_25  and  C26_26
REMARK   13  A    between atoms: C29_29  and  O31_31
REMARK                            x       y       z     vdW  Elec       q    Type
REMARK                         _______ _______ _______ _____ _____    ______ ____
ROOT
ATOM      1  C   UNL     1       6.373  -3.062 -34.132  0.00  0.00    +0.170 C 
ATOM      2  C   UNL     1       7.471  -3.766 -33.336  0.00  0.00    +0.020 C 
ATOM      3  C   UNL     1       8.823  -3.440 -33.987  0.00  0.00    +0.020 C 
ATOM      4  C   UNL     1       8.796  -3.977 -35.395  0.00  0.00    -0.020 C 
ATOM      5  C   UNL     1       7.672  -4.016 -36.087  0.00  0.00    -0.090 C 
ATOM      6  C   UNL     1       7.669  -4.654 -37.424  0.00  0.00    +0.000 C 
ATOM      7  C   UNL     1       6.523  -4.996 -37.985  0.00  0.00    -0.030 C 
ATOM      8  C   UNL     1       5.180  -4.768 -37.361  0.00  0.00    +0.020 C 
ATOM      9  C   UNL     1       5.289  -4.554 -35.850  0.00  0.00    +0.010 C 
ATOM     10  C   UNL     1       4.540  -3.530 -37.993  0.00  0.00    +0.030 C 
ATOM     11  C   UNL     1       9.952  -4.107 -33.198  0.00  0.00    +0.040 C 
ATOM     12  C   UNL     1       6.361  -3.497 -35.579  0.00  0.00    +0.040 C 
ENDROOT
BRANCH   1  13
ATOM     13  O   UNL     1       5.086  -3.372 -33.536  0.00  0.00    -0.320 OA
BRANCH  13  14
ATOM     14  C   UNL     1       4.558  -2.449 -32.716  0.00  0.00    +0.460 C 
ATOM     15  O   UNL     1       4.731  -1.274 -32.937  0.00  0.00    -0.500 OA
BRANCH  14  16
ATOM     16  C   UNL     1       3.748  -2.879 -31.519  0.00  0.00    -0.050 C 
ATOM     17  C   UNL     1       2.430  -2.104 -31.489  0.00  0.00    +0.060 C 
ATOM     18  C   UNL     1       3.457  -4.378 -31.613  0.00  0.00    +0.050 C 
BRANCH  16  20
ATOM     19  C   UNL     1       3.891  -1.427 -29.491  0.00  0.00    +0.030 C 
ATOM     20  C   UNL     1       4.538  -2.594 -30.240  0.00  0.00    +0.040 C 
ENDBRANCH  16  20
ENDBRANCH  14  16
ENDBRANCH  13  14
ENDBRANCH   1  13
BRANCH   9  21
ATOM     21  C   UNL     1       3.943  -4.079 -35.301  0.00  0.00    +0.060 C 
BRANCH  21  22
ATOM     22  C   UNL     1       2.924  -5.217 -35.394  0.00  0.00    +0.040 C 
BRANCH  22  23
ATOM     23  C   UNL     1       1.513  -4.631 -35.482  0.00  0.00    +0.190 C 
ATOM     24  C   UNL     1       1.101  -4.509 -36.952  0.00  0.00    +0.050 C 
ATOM     25  C   UNL     1      -0.291  -3.875 -37.038  0.00  0.00    +0.180 C 
ATOM     26  C   UNL     1      -0.245  -2.485 -36.393  0.00  0.00    +0.020 C 
ATOM     27  C   UNL     1       0.344  -2.620 -35.006  0.00  0.00    +0.490 C 
ATOM     28  O   UNL     1      -0.201  -2.124 -34.048  0.00  0.00    -0.450 OA
ATOM     29  O   UNL     1       1.494  -3.312 -34.868  0.00  0.00    -0.370 OA
BRANCH  25  30
ATOM     30  O   UNL     1      -1.234  -4.695 -36.346  0.00  0.00    -0.560 OA
ATOM     31  H   UNL     1      -1.596  -4.288 -35.546  0.00  0.00    +0.390 HD
ENDBRANCH  25  30
ENDBRANCH  22  23
ENDBRANCH  21  22
ENDBRANCH   9  21
TORSDOF 8
ENDMDL
