REMARK  Name = ZINC000003780893
REMARK  13 active torsions:
REMARK  status: ('A' for Active; 'I' for Inactive)
REMARK    1  A    between atoms: C1_1  and  C2_2
REMARK    2  A    between atoms: C2_2  and  C3_3
REMARK    3  A    between atoms: C3_3  and  C4_4
REMARK    4  A    between atoms: C3_3  and  C5_5
REMARK    5  A    between atoms: C3_3  and  C6_6
REMARK    6  A    between atoms: C6_6  and  O8_8
REMARK    7  A    between atoms: O8_8  and  C9_9
REMARK    8  A    between atoms: C12_12  and  C14_14
REMARK    9  A    between atoms: C19_19  and  C21_21
REMARK   10  A    between atoms: C22_22  and  C24_24
REMARK   11  A    between atoms: C24_24  and  C25_25
REMARK   12  A    between atoms: C25_25  and  C26_26
REMARK   13  A    between atoms: C29_29  and  O31_31
REMARK                            x       y       z     vdW  Elec       q    Type
REMARK                         _______ _______ _______ _____ _____    ______ ____
ROOT
ATOM      1  C   UNL     1      -3.023  -4.812  -1.564  0.00  0.00    +0.170 C 
ATOM      2  C   UNL     1      -2.421  -5.623  -0.418  0.00  0.00    +0.020 C 
ATOM      3  C   UNL     1      -2.926  -7.068  -0.532  0.00  0.00    +0.020 C 
ATOM      4  C   UNL     1      -4.427  -7.042  -0.399  0.00  0.00    -0.020 C 
ATOM      5  C   UNL     1      -5.131  -6.013  -0.834  0.00  0.00    -0.090 C 
ATOM      6  C   UNL     1      -6.590  -5.978  -0.582  0.00  0.00    +0.000 C 
ATOM      7  C   UNL     1      -7.251  -4.841  -0.708  0.00  0.00    -0.030 C 
ATOM      8  C   UNL     1      -6.621  -3.543  -1.114  0.00  0.00    +0.020 C 
ATOM      9  C   UNL     1      -5.106  -3.559  -0.899  0.00  0.00    +0.010 C 
ATOM     10  C   UNL     1      -6.910  -3.290  -2.595  0.00  0.00    +0.030 C 
ATOM     11  C   UNL     1      -2.320  -7.919   0.586  0.00  0.00    +0.040 C 
ATOM     12  C   UNL     1      -4.533  -4.828  -1.532  0.00  0.00    +0.040 C 
ENDROOT
BRANCH   1  13
ATOM     13  O   UNL     1      -2.564  -3.438  -1.462  0.00  0.00    -0.320 OA
BRANCH  13  14
ATOM     14  C   UNL     1      -1.360  -3.158  -1.987  0.00  0.00    +0.460 C 
ATOM     15  O   UNL     1      -0.759  -4.004  -2.605  0.00  0.00    -0.500 OA
BRANCH  14  16
ATOM     16  C   UNL     1      -0.759  -1.788  -1.804  0.00  0.00    -0.050 C 
ATOM     17  C   UNL     1      -1.579  -0.762  -2.589  0.00  0.00    +0.060 C 
ATOM     18  C   UNL     1      -0.769  -1.421  -0.319  0.00  0.00    +0.050 C 
BRANCH  16  20
ATOM     19  C   UNL     1       1.292  -0.400  -2.133  0.00  0.00    +0.030 C 
ATOM     20  C   UNL     1       0.682  -1.791  -2.318  0.00  0.00    +0.040 C 
ENDBRANCH  16  20
ENDBRANCH  14  16
ENDBRANCH  13  14
ENDBRANCH   1  13
BRANCH   9  21
ATOM     21  C   UNL     1      -4.482  -2.326  -1.554  0.00  0.00    +0.060 C 
BRANCH  21  22
ATOM     22  C   UNL     1      -5.385  -1.113  -1.323  0.00  0.00    +0.040 C 
BRANCH  22  23
ATOM     23  C   UNL     1      -4.788   0.108  -2.025  0.00  0.00    +0.190 C 
ATOM     24  C   UNL     1      -5.671   1.331  -1.763  0.00  0.00    +0.050 C 
ATOM     25  C   UNL     1      -5.099   2.540  -2.510  0.00  0.00    +0.180 C 
ATOM     26  C   UNL     1      -5.071   2.230  -4.011  0.00  0.00    +0.020 C 
ATOM     27  C   UNL     1      -4.351   0.916  -4.215  0.00  0.00    +0.490 C 
ATOM     28  O   UNL     1      -3.466   0.812  -5.031  0.00  0.00    -0.450 OA
ATOM     29  O   UNL     1      -4.723  -0.138  -3.458  0.00  0.00    -0.370 OA
BRANCH  25  30
ATOM     30  O   UNL     1      -3.772   2.803  -2.049  0.00  0.00    -0.560 OA
ATOM     31  H   UNL     1      -3.348   3.558  -2.481  0.00  0.00    +0.390 HD
ENDBRANCH  25  30
ENDBRANCH  22  23
ENDBRANCH  21  22
ENDBRANCH   9  21
TORSDOF 8
