@<TRIPOS>MOLECULE
ZINC000036378557
57    61    1     0     0
SMALL
USER_CHARGES
@<TRIPOS>ATOM
1      C1     -0.0187    1.5258    0.0104 C.3      1 ZINC000036378557   -0.1400
2      C2      0.0021   -0.0041    0.0020 C.3      1 ZINC000036378557   -0.0100
3      C3     -1.4134   -0.5749   -0.1053 C.3      1 ZINC000036378557   -0.1300
4      S4      1.0907   -0.6522   -1.3359 S.3      1 ZINC000036378557   -0.2200
5      C5      2.6329   -0.5170   -0.3543 C.3      1 ZINC000036378557    0.0900
6      H6      3.2816    0.3031   -0.6620 H        1 ZINC000036378557    0.1700
7      C7      3.3483   -1.8438   -0.1277 C.3      1 ZINC000036378557    0.1100
8      H8      4.4222   -1.8139   -0.3121 H        1 ZINC000036378557    0.1600
9      N9      2.6851   -3.0008   -0.7340 N.am     1 ZINC000036378557   -0.7000
10     C10     3.4015   -4.0962   -1.0557 C.2      1 ZINC000036378557    0.5300
11     O11     4.5952   -4.1240   -0.8432 O.2      1 ZINC000036378557   -0.5100
12     C12     2.7192   -5.2863   -1.6795 C.3      1 ZINC000036378557    0.1200
13     H13     1.7530   -5.4437   -1.2002 H        1 ZINC000036378557    0.1100
14     N14     3.5556   -6.4804   -1.4990 N.3      1 ZINC000036378557   -0.8200
15     C15     2.5148   -5.0340   -3.1511 C.ar     1 ZINC000036378557   -0.1300
16     C16     3.5604   -5.2198   -4.0360 C.ar     1 ZINC000036378557   -0.1100
17     C17     3.3729   -4.9883   -5.3859 C.ar     1 ZINC000036378557   -0.1100
18     C18     2.1397   -4.5714   -5.8509 C.ar     1 ZINC000036378557   -0.1100
19     C19     1.0938   -4.3864   -4.9661 C.ar     1 ZINC000036378557   -0.1100
20     C20     1.2801   -4.6220   -3.6168 C.ar     1 ZINC000036378557   -0.1000
21     C21     2.9546   -1.5777    1.3007 C.2      1 ZINC000036378557    0.4800
22     O22     3.2279   -2.1501    2.3345 O.2      1 ZINC000036378557   -0.4100
23     N23     2.1938   -0.4697    1.0469 N.am     1 ZINC000036378557   -0.5100
24     C24     0.7447   -0.5655    1.2444 C.3      1 ZINC000036378557    0.1100
25     H25     0.4661   -1.6109    1.3779 H        1 ZINC000036378557    0.1200
26     C26     0.3544    0.2166    2.4720 C.2      1 ZINC000036378557    0.4700
27     O27     1.1038    1.0519    2.9197 O.2      1 ZINC000036378557   -0.4400
28     O28    -0.8258   -0.0148    3.0681 O.3      1 ZINC000036378557   -0.3400
29     C29    -1.1356    0.7756    4.2460 C.3      1 ZINC000036378557    0.3000
30     H30    -0.2965    0.7545    4.9415 H        1 ZINC000036378557    0.1500
31     O31    -1.4318    2.1466    3.8631 O.3      1 ZINC000036378557   -0.3200
32     C32    -2.6875    2.4439    4.2369 C.2      1 ZINC000036378557    0.5200
33     O33    -3.2309    3.5153    4.0568 O.2      1 ZINC000036378557   -0.4300
34     C34    -3.3111    1.2823    4.8966 C.ar     1 ZINC000036378557   -0.1800
35     C35    -4.5744    1.0794    5.4543 C.ar     1 ZINC000036378557   -0.0300
36     C36    -4.8877   -0.1413    6.0163 C.ar     1 ZINC000036378557   -0.1100
37     C37    -3.9559   -1.1638    6.0298 C.ar     1 ZINC000036378557   -0.0800
38     C38    -2.7000   -0.9699    5.4782 C.ar     1 ZINC000036378557   -0.0700
39     C39    -2.3765    0.2414    4.9160 C.ar     1 ZINC000036378557   -0.1000
40     H40     1.0039    1.9031    0.0027 H        1 ZINC000036378557    0.0800
41     H41    -0.5459    1.8868   -0.8726 H        1 ZINC000036378557    0.0900
42     H42    -0.5289    1.8773    0.9072 H        1 ZINC000036378557    0.0700
43     H43    -1.8805   -0.2180   -1.0232 H        1 ZINC000036378557    0.0800
44     H44    -1.3658   -1.6638   -0.1215 H        1 ZINC000036378557    0.0800
45     H45    -2.0023   -0.2497    0.7523 H        1 ZINC000036378557    0.0900
46     H46     1.7303   -2.9785   -0.9040 H        1 ZINC000036378557    0.4100
47     H47     3.0912   -7.3038   -1.8516 H        1 ZINC000036378557    0.3600
48     H48     4.4575   -6.3594   -1.9348 H        1 ZINC000036378557    0.3500
49     H49     4.5239   -5.5456   -3.6727 H        1 ZINC000036378557    0.1200
50     H50     4.1900   -5.1329   -6.0771 H        1 ZINC000036378557    0.1300
51     H51     1.9934   -4.3899   -6.9054 H        1 ZINC000036378557    0.1200
52     H52     0.1304   -4.0603   -5.3294 H        1 ZINC000036378557    0.1300
53     H53     0.4630   -4.4775   -2.9255 H        1 ZINC000036378557    0.1200
54     H54    -5.3043    1.8753    5.4463 H        1 ZINC000036378557    0.1400
55     H55    -5.8650   -0.2992    6.4480 H        1 ZINC000036378557    0.1400
56     H56    -4.2082   -2.1162    6.4721 H        1 ZINC000036378557    0.1400
57     H57    -1.9749   -1.7703    5.4903 H        1 ZINC000036378557    0.1400
@<TRIPOS>BOND
1     1     2     1
2     1     40    1
3     1     41    1
4     1     42    1
5     2     24    1
6     2     3     1
7     2     4     1
8     3     43    1
9     3     44    1
10    3     45    1
11    4     5     1
12    5     6     1
13    5     23    1
14    5     7     1
15    7     8     1
16    7     9     1
17    7     21    1
18    9     10    am
19    9     46    1
20    10    11    2
21    10    12    1
22    12    13    1
23    12    14    1
24    12    15    1
25    14    47    1
26    14    48    1
27    15    20    ar
28    15    16    ar
29    16    17    ar
30    16    49    1
31    17    18    ar
32    17    50    1
33    18    19    ar
34    18    51    1
35    19    20    ar
36    19    52    1
37    20    53    1
38    21    22    2
39    21    23    am
40    23    24    1
41    24    25    1
42    24    26    1
43    26    27    2
44    26    28    1
45    28    29    1
46    29    30    1
47    29    39    1
48    29    31    1
49    31    32    1
50    32    33    2
51    32    34    1
52    34    39    ar
53    34    35    ar
54    35    36    ar
55    35    54    1
56    36    37    ar
57    36    55    1
58    37    38    ar
59    37    56    1
60    38    39    ar
61    38    57    1
@<TRIPOS>SUBSTRUCTURE
1   ZINC000036378557 1     RESIDUE    1   A     ZIN   1
