MODEL 1
REMARK VINA RESULT:      -7.7      0.000      0.000
REMARK  Name = ZINC000036378557
REMARK  9 active torsions:
REMARK  status: ('A' for Active; 'I' for Inactive)
REMARK    1  A    between atoms: C1_1  and  C2_2
REMARK    2  A    between atoms: C2_2  and  C3_3
REMARK    3  A    between atoms: C7_7  and  N9_9
REMARK    4  A    between atoms: C10_10  and  C12_12
REMARK    5  A    between atoms: C12_12  and  N14_14
REMARK    6  A    between atoms: C12_12  and  C15_15
REMARK    7  A    between atoms: C24_24  and  C26_26
REMARK    8  A    between atoms: C26_26  and  O28_28
REMARK    9  A    between atoms: O28_28  and  C29_29
REMARK                            x       y       z     vdW  Elec       q    Type
REMARK                         _______ _______ _______ _____ _____    ______ ____
ROOT
ATOM      1  C   UNL     1      -3.371  19.505 -32.421  0.00  0.00    +0.100 C 
ATOM      2  C   UNL     1      -3.194  18.449 -31.328  0.00  0.00    -0.010 C 
ATOM      3  S   UNL     1      -4.396  18.700 -29.953  0.00  0.00    -0.220 S 
ATOM      4  C   UNL     1      -5.759  17.793 -30.776  0.00  0.00    +0.260 C 
ATOM      5  C   UNL     1      -6.249  16.570 -30.008  0.00  0.00    +0.270 C 
ATOM      6  C   UNL     1      -5.664  15.847 -31.192  0.00  0.00    +0.480 C 
ATOM      7  O   UNL     1      -5.686  14.680 -31.517  0.00  0.00    -0.410 OA
ATOM      8  N   UNL     1      -5.105  16.947 -31.783  0.00  0.00    -0.510 N 
ATOM      9  C   UNL     1      -1.754  18.423 -30.812  0.00  0.00    +0.120 C 
ATOM     10  C   UNL     1      -3.643  17.046 -31.818  0.00  0.00    +0.230 C 
ENDROOT
BRANCH   5  11
ATOM     11  N   UNL     1      -5.550  16.329 -28.744  0.00  0.00    -0.700 N 
ATOM     12  H   UNL     1      -4.581  16.283 -28.727  0.00  0.00    +0.410 HD
ATOM     13  C   UNL     1      -6.253  16.171 -27.605  0.00  0.00    +0.530 C 
ATOM     14  O   UNL     1      -7.465  16.229 -27.627  0.00  0.00    -0.510 OA
BRANCH  13  15
ATOM     15  C   UNL     1      -5.535  15.922 -26.304  0.00  0.00    +0.230 C 
BRANCH  15  16
ATOM     16  C   UNL     1      -4.408  16.912 -26.156  0.00  0.00    -0.130 A 
ATOM     17  C   UNL     1      -4.685  18.253 -25.972  0.00  0.00    +0.010 A 
ATOM     18  C   UNL     1      -3.651  19.161 -25.836  0.00  0.00    +0.020 A 
ATOM     19  C   UNL     1      -2.340  18.727 -25.884  0.00  0.00    +0.010 A 
ATOM     20  C   UNL     1      -2.062  17.385 -26.067  0.00  0.00    +0.020 A 
ATOM     21  C   UNL     1      -3.096  16.477 -26.198  0.00  0.00    +0.020 A 
ENDBRANCH  15  16
BRANCH  15  22
ATOM     22  N   UNL     1      -6.475  16.081 -25.187  0.00  0.00    -0.820 NA
ATOM     23  H   UNL     1      -7.148  15.330 -25.171  0.00  0.00    +0.350 HD
ATOM     24  H   UNL     1      -6.936  16.979 -25.228  0.00  0.00    +0.360 HD
ENDBRANCH  15  22
ENDBRANCH  13  15
ENDBRANCH   5  11
BRANCH  10  25
ATOM     25  C   UNL     1      -3.160  16.818 -33.229  0.00  0.00    +0.470 C 
ATOM     26  O   UNL     1      -3.913  16.986 -34.159  0.00  0.00    -0.440 OA
BRANCH  25  27
ATOM     27  O   UNL     1      -1.895  16.428 -33.450  0.00  0.00    -0.340 OA
BRANCH  27  28
ATOM     28  C   UNL     1      -1.637  14.999 -33.445  0.00  0.00    +0.450 C 
ATOM     29  O   UNL     1      -1.731  14.470 -34.797  0.00  0.00    -0.320 OA
ATOM     30  C   UNL     1      -0.546  13.938 -35.142  0.00  0.00    +0.520 C 
ATOM     31  C   UNL     1       0.417  14.080 -34.035  0.00  0.00    -0.180 A 
ATOM     32  C   UNL     1       1.753  13.702 -33.893  0.00  0.00    +0.110 A 
ATOM     33  C   UNL     1       2.421  13.970 -32.717  0.00  0.00    +0.030 A 
ATOM     34  C   UNL     1       1.772  14.612 -31.677  0.00  0.00    +0.060 A 
ATOM     35  C   UNL     1       0.447  14.992 -31.810  0.00  0.00    +0.070 A 
ATOM     36  O   UNL     1      -0.305  13.417 -36.212  0.00  0.00    -0.430 OA
ATOM     37  C   UNL     1      -0.228  14.730 -32.978  0.00  0.00    -0.100 A 
ENDBRANCH  27  28
ENDBRANCH  25  27
ENDBRANCH  10  25
TORSDOF 7
ENDMDL
MODEL 2
REMARK VINA RESULT:      -7.4     19.779     22.442
REMARK  Name = ZINC000036378557
REMARK  9 active torsions:
REMARK  status: ('A' for Active; 'I' for Inactive)
REMARK    1  A    between atoms: C1_1  and  C2_2
REMARK    2  A    between atoms: C2_2  and  C3_3
REMARK    3  A    between atoms: C7_7  and  N9_9
REMARK    4  A    between atoms: C10_10  and  C12_12
REMARK    5  A    between atoms: C12_12  and  N14_14
REMARK    6  A    between atoms: C12_12  and  C15_15
REMARK    7  A    between atoms: C24_24  and  C26_26
REMARK    8  A    between atoms: C26_26  and  O28_28
REMARK    9  A    between atoms: O28_28  and  C29_29
REMARK                            x       y       z     vdW  Elec       q    Type
REMARK                         _______ _______ _______ _____ _____    ______ ____
ROOT
ATOM      1  C   UNL     1       0.074  -7.354 -36.265  0.00  0.00    +0.100 C 
ATOM      2  C   UNL     1       0.639  -6.633 -35.040  0.00  0.00    -0.010 C 
ATOM      3  S   UNL     1       2.164  -5.688 -35.463  0.00  0.00    -0.220 S 
ATOM      4  C   UNL     1       1.264  -4.210 -36.066  0.00  0.00    +0.260 C 
ATOM      5  C   UNL     1       1.566  -2.934 -35.289  0.00  0.00    +0.270 C 
ATOM      6  C   UNL     1       0.123  -3.084 -34.883  0.00  0.00    +0.480 C 
ATOM      7  O   UNL     1      -0.618  -2.360 -34.254  0.00  0.00    -0.410 OA
ATOM      8  N   UNL     1      -0.075  -4.304 -35.468  0.00  0.00    -0.510 N 
ATOM      9  C   UNL     1       0.890  -7.610 -33.890  0.00  0.00    +0.120 C 
ATOM     10  C   UNL     1      -0.282  -5.464 -34.596  0.00  0.00    +0.230 C 
ENDROOT
BRANCH   5  11
ATOM     11  N   UNL     1       2.524  -3.104 -34.194  0.00  0.00    -0.700 N 
ATOM     12  H   UNL     1       2.886  -3.982 -33.998  0.00  0.00    +0.410 HD
ATOM     13  C   UNL     1       2.904  -2.039 -33.460  0.00  0.00    +0.530 C 
ATOM     14  O   UNL     1       2.451  -0.941 -33.705  0.00  0.00    -0.510 OA
BRANCH  13  15
ATOM     15  C   UNL     1       3.890  -2.214 -32.334  0.00  0.00    +0.230 C 
BRANCH  15  16
ATOM     16  C   UNL     1       5.198  -2.721 -32.886  0.00  0.00    -0.130 A 
ATOM     17  C   UNL     1       5.754  -3.884 -32.388  0.00  0.00    +0.010 A 
ATOM     18  C   UNL     1       6.954  -4.348 -32.893  0.00  0.00    +0.020 A 
ATOM     19  C   UNL     1       7.597  -3.649 -33.897  0.00  0.00    +0.010 A 
ATOM     20  C   UNL     1       7.040  -2.486 -34.396  0.00  0.00    +0.020 A 
ATOM     21  C   UNL     1       5.839  -2.024 -33.894  0.00  0.00    +0.020 A 
ENDBRANCH  15  16
BRANCH  15  22
ATOM     22  N   UNL     1       4.107  -0.922 -31.669  0.00  0.00    -0.820 NA
ATOM     23  H   UNL     1       5.084  -0.781 -31.463  0.00  0.00    +0.350 HD
ATOM     24  H   UNL     1       3.547  -0.847 -30.833  0.00  0.00    +0.360 HD
ENDBRANCH  15  22
ENDBRANCH  13  15
ENDBRANCH   5  11
BRANCH  10  25
ATOM     25  C   UNL     1      -1.725  -5.894 -34.669  0.00  0.00    +0.470 C 
ATOM     26  O   UNL     1      -2.050  -6.988 -34.273  0.00  0.00    -0.440 OA
BRANCH  25  27
ATOM     27  O   UNL     1      -2.648  -5.062 -35.177  0.00  0.00    -0.340 OA
BRANCH  27  28
ATOM     28  C   UNL     1      -3.923  -4.992 -34.485  0.00  0.00    +0.450 C 
ATOM     29  O   UNL     1      -4.287  -3.604 -34.247  0.00  0.00    -0.320 OA
ATOM     30  C   UNL     1      -5.447  -3.343 -34.873  0.00  0.00    +0.520 C 
ATOM     31  C   UNL     1      -5.931  -4.547 -35.572  0.00  0.00    -0.180 A 
ATOM     32  C   UNL     1      -7.063  -4.795 -36.350  0.00  0.00    +0.110 A 
ATOM     33  C   UNL     1      -7.263  -6.048 -36.890  0.00  0.00    +0.030 A 
ATOM     34  C   UNL     1      -6.347  -7.061 -36.663  0.00  0.00    +0.060 A 
ATOM     35  C   UNL     1      -5.221  -6.822 -35.892  0.00  0.00    +0.070 A 
ATOM     36  O   UNL     1      -6.013  -2.269 -34.865  0.00  0.00    -0.430 OA
ATOM     37  C   UNL     1      -5.012  -5.578 -35.349  0.00  0.00    -0.100 A 
ENDBRANCH  27  28
ENDBRANCH  25  27
ENDBRANCH  10  25
TORSDOF 7
ENDMDL
MODEL 3
REMARK VINA RESULT:      -7.3     19.386     22.000
REMARK  Name = ZINC000036378557
REMARK  9 active torsions:
REMARK  status: ('A' for Active; 'I' for Inactive)
REMARK    1  A    between atoms: C1_1  and  C2_2
REMARK    2  A    between atoms: C2_2  and  C3_3
REMARK    3  A    between atoms: C7_7  and  N9_9
REMARK    4  A    between atoms: C10_10  and  C12_12
REMARK    5  A    between atoms: C12_12  and  N14_14
REMARK    6  A    between atoms: C12_12  and  C15_15
REMARK    7  A    between atoms: C24_24  and  C26_26
REMARK    8  A    between atoms: C26_26  and  O28_28
REMARK    9  A    between atoms: O28_28  and  C29_29
REMARK                            x       y       z     vdW  Elec       q    Type
REMARK                         _______ _______ _______ _____ _____    ______ ____
ROOT
ATOM      1  C   UNL     1       4.028  -5.208 -22.293  0.00  0.00    +0.100 C 
ATOM      2  C   UNL     1       4.286  -4.092 -23.308  0.00  0.00    -0.010 C 
ATOM      3  S   UNL     1       4.180  -4.720 -25.037  0.00  0.00    -0.220 S 
ATOM      4  C   UNL     1       2.357  -4.560 -25.144  0.00  0.00    +0.260 C 
ATOM      5  C   UNL     1       1.877  -3.608 -26.233  0.00  0.00    +0.270 C 
ATOM      6  C   UNL     1       1.421  -2.804 -25.044  0.00  0.00    +0.480 C 
ATOM      7  O   UNL     1       0.760  -1.792 -24.959  0.00  0.00    -0.410 OA
ATOM      8  N   UNL     1       1.993  -3.601 -24.092  0.00  0.00    -0.510 N 
ATOM      9  C   UNL     1       5.628  -3.406 -23.045  0.00  0.00    +0.120 C 
ATOM     10  C   UNL     1       3.122  -3.065 -23.327  0.00  0.00    +0.230 C 
ENDROOT
BRANCH   5  11
ATOM     11  N   UNL     1       2.950  -2.985 -27.011  0.00  0.00    -0.700 N 
ATOM     12  H   UNL     1       3.864  -3.015 -26.686  0.00  0.00    +0.410 HD
ATOM     13  C   UNL     1       2.669  -2.371 -28.177  0.00  0.00    +0.530 C 
ATOM     14  O   UNL     1       1.526  -2.333 -28.582  0.00  0.00    -0.510 OA
BRANCH  13  15
ATOM     15  C   UNL     1       3.773  -1.730 -28.977  0.00  0.00    +0.230 C 
BRANCH  15  16
ATOM     16  C   UNL     1       3.848  -2.375 -30.337  0.00  0.00    -0.130 A 
ATOM     17  C   UNL     1       4.144  -3.721 -30.449  0.00  0.00    +0.010 A 
ATOM     18  C   UNL     1       4.214  -4.312 -31.696  0.00  0.00    +0.020 A 
ATOM     19  C   UNL     1       3.985  -3.558 -32.832  0.00  0.00    +0.010 A 
ATOM     20  C   UNL     1       3.687  -2.213 -32.720  0.00  0.00    +0.020 A 
ATOM     21  C   UNL     1       3.614  -1.622 -31.473  0.00  0.00    +0.020 A 
ENDBRANCH  15  16
BRANCH  15  22
ATOM     22  N   UNL     1       3.497  -0.295 -29.131  0.00  0.00    -0.820 NA
ATOM     23  H   UNL     1       4.135   0.127 -29.787  0.00  0.00    +0.350 HD
ATOM     24  H   UNL     1       3.530   0.177 -28.239  0.00  0.00    +0.360 HD
ENDBRANCH  15  22
ENDBRANCH  13  15
ENDBRANCH   5  11
BRANCH  10  25
ATOM     25  C   UNL     1       2.677  -2.769 -21.917  0.00  0.00    +0.470 C 
ATOM     26  O   UNL     1       1.540  -3.006 -21.581  0.00  0.00    -0.440 OA
BRANCH  25  27
ATOM     27  O   UNL     1       3.542  -2.242 -21.037  0.00  0.00    -0.340 OA
BRANCH  27  28
ATOM     28  C   UNL     1       3.411  -0.824 -20.753  0.00  0.00    +0.450 C 
ATOM     29  O   UNL     1       3.343  -0.606 -19.317  0.00  0.00    -0.320 OA
ATOM     30  C   UNL     1       4.377   0.165 -18.942  0.00  0.00    +0.520 C 
ATOM     31  C   UNL     1       5.204   0.512 -20.112  0.00  0.00    -0.180 A 
ATOM     32  C   UNL     1       6.365   1.273 -20.254  0.00  0.00    +0.110 A 
ATOM     33  C   UNL     1       6.934   1.430 -21.501  0.00  0.00    +0.030 A 
ATOM     34  C   UNL     1       6.359   0.836 -22.611  0.00  0.00    +0.060 A 
ATOM     35  C   UNL     1       5.207   0.078 -22.477  0.00  0.00    +0.070 A 
ATOM     36  O   UNL     1       4.598   0.524 -17.803  0.00  0.00    -0.430 OA
ATOM     37  C   UNL     1       4.632  -0.084 -21.240  0.00  0.00    -0.100 A 
ENDBRANCH  27  28
ENDBRANCH  25  27
ENDBRANCH  10  25
TORSDOF 7
ENDMDL
MODEL 4
REMARK VINA RESULT:      -7.2     19.907     21.405
REMARK  Name = ZINC000036378557
REMARK  9 active torsions:
REMARK  status: ('A' for Active; 'I' for Inactive)
REMARK    1  A    between atoms: C1_1  and  C2_2
REMARK    2  A    between atoms: C2_2  and  C3_3
REMARK    3  A    between atoms: C7_7  and  N9_9
REMARK    4  A    between atoms: C10_10  and  C12_12
REMARK    5  A    between atoms: C12_12  and  N14_14
REMARK    6  A    between atoms: C12_12  and  C15_15
REMARK    7  A    between atoms: C24_24  and  C26_26
REMARK    8  A    between atoms: C26_26  and  O28_28
REMARK    9  A    between atoms: O28_28  and  C29_29
REMARK                            x       y       z     vdW  Elec       q    Type
REMARK                         _______ _______ _______ _____ _____    ______ ____
ROOT
ATOM      1  C   UNL     1       0.307  -2.897 -18.003  0.00  0.00    +0.100 C 
ATOM      2  C   UNL     1       0.226  -1.370 -17.949  0.00  0.00    -0.010 C 
ATOM      3  S   UNL     1      -1.064  -0.809 -16.759  0.00  0.00    -0.220 S 
ATOM      4  C   UNL     1       0.026  -0.923 -15.290  0.00  0.00    +0.260 C 
ATOM      5  C   UNL     1       0.235   0.400 -14.563  0.00  0.00    +0.270 C 
ATOM      6  C   UNL     1       1.646   0.213 -15.057  0.00  0.00    +0.480 C 
ATOM      7  O   UNL     1       2.666   0.830 -14.841  0.00  0.00    -0.410 OA
ATOM      8  N   UNL     1       1.394  -0.893 -15.822  0.00  0.00    -0.510 N 
ATOM      9  C   UNL     1      -0.004  -0.779 -19.341  0.00  0.00    +0.120 C 
ATOM     10  C   UNL     1       1.487  -0.761 -17.279  0.00  0.00    +0.230 C 
ENDROOT
BRANCH   5  11
ATOM     11  N   UNL     1      -0.470   1.537 -15.159  0.00  0.00    -0.700 N 
ATOM     12  H   UNL     1      -0.263   1.814 -16.065  0.00  0.00    +0.410 HD
ATOM     13  C   UNL     1      -1.405   2.198 -14.449  0.00  0.00    +0.530 C 
ATOM     14  O   UNL     1      -1.663   1.850 -13.315  0.00  0.00    -0.510 OA
BRANCH  13  15
ATOM     15  C   UNL     1      -2.130   3.367 -15.061  0.00  0.00    +0.230 C 
BRANCH  15  16
ATOM     16  C   UNL     1      -1.821   4.616 -14.276  0.00  0.00    -0.130 A 
ATOM     17  C   UNL     1      -0.515   5.050 -14.152  0.00  0.00    +0.010 A 
ATOM     18  C   UNL     1      -0.232   6.195 -13.431  0.00  0.00    +0.020 A 
ATOM     19  C   UNL     1      -1.255   6.908 -12.836  0.00  0.00    +0.010 A 
ATOM     20  C   UNL     1      -2.563   6.475 -12.961  0.00  0.00    +0.020 A 
ATOM     21  C   UNL     1      -2.846   5.332 -13.685  0.00  0.00    +0.020 A 
ENDBRANCH  15  16
BRANCH  15  22
ATOM     22  N   UNL     1      -1.690   3.543 -16.452  0.00  0.00    -0.820 NA
ATOM     23  H   UNL     1      -2.470   3.492 -17.088  0.00  0.00    +0.350 HD
ATOM     24  H   UNL     1      -0.981   2.865 -16.695  0.00  0.00    +0.360 HD
ENDBRANCH  15  22
ENDBRANCH  13  15
ENDBRANCH   5  11
BRANCH  10  25
ATOM     25  C   UNL     1       2.722  -1.474 -17.768  0.00  0.00    +0.470 C 
ATOM     26  O   UNL     1       3.199  -2.373 -17.116  0.00  0.00    -0.440 OA
BRANCH  25  27
ATOM     27  O   UNL     1       3.293  -1.110 -18.927  0.00  0.00    -0.340 OA
BRANCH  27  28
ATOM     28  C   UNL     1       4.009   0.154 -18.941  0.00  0.00    +0.450 C 
ATOM     29  O   UNL     1       4.944   0.210 -17.829  0.00  0.00    -0.320 OA
ATOM     30  C   UNL     1       6.191   0.340 -18.312  0.00  0.00    +0.520 C 
ATOM     31  C   UNL     1       6.164   0.380 -19.786  0.00  0.00    -0.180 A 
ATOM     32  C   UNL     1       7.171   0.501 -20.744  0.00  0.00    +0.110 A 
ATOM     33  C   UNL     1       6.845   0.509 -22.084  0.00  0.00    +0.030 A 
ATOM     34  C   UNL     1       5.525   0.397 -22.482  0.00  0.00    +0.060 A 
ATOM     35  C   UNL     1       4.519   0.275 -21.537  0.00  0.00    +0.070 A 
ATOM     36  O   UNL     1       7.194   0.415 -17.632  0.00  0.00    -0.430 OA
ATOM     37  C   UNL     1       4.833   0.267 -20.199  0.00  0.00    -0.100 A 
ENDBRANCH  27  28
ENDBRANCH  25  27
ENDBRANCH  10  25
TORSDOF 7
ENDMDL
MODEL 5
REMARK VINA RESULT:      -7.2     20.386     22.880
REMARK  Name = ZINC000036378557
REMARK  9 active torsions:
REMARK  status: ('A' for Active; 'I' for Inactive)
REMARK    1  A    between atoms: C1_1  and  C2_2
REMARK    2  A    between atoms: C2_2  and  C3_3
REMARK    3  A    between atoms: C7_7  and  N9_9
REMARK    4  A    between atoms: C10_10  and  C12_12
REMARK    5  A    between atoms: C12_12  and  N14_14
REMARK    6  A    between atoms: C12_12  and  C15_15
REMARK    7  A    between atoms: C24_24  and  C26_26
REMARK    8  A    between atoms: C26_26  and  O28_28
REMARK    9  A    between atoms: O28_28  and  C29_29
REMARK                            x       y       z     vdW  Elec       q    Type
REMARK                         _______ _______ _______ _____ _____    ______ ____
ROOT
ATOM      1  C   UNL     1      -2.071  -5.937 -37.140  0.00  0.00    +0.100 C 
ATOM      2  C   UNL     1      -0.727  -5.917 -36.409  0.00  0.00    -0.010 C 
ATOM      3  S   UNL     1       0.600  -5.194 -37.463  0.00  0.00    -0.220 S 
ATOM      4  C   UNL     1       0.204  -3.456 -37.033  0.00  0.00    +0.260 C 
ATOM      5  C   UNL     1       1.343  -2.707 -36.352  0.00  0.00    +0.270 C 
ATOM      6  C   UNL     1       0.391  -2.733 -35.186  0.00  0.00    +0.480 C 
ATOM      7  O   UNL     1       0.438  -2.212 -34.093  0.00  0.00    -0.410 OA
ATOM      8  N   UNL     1      -0.549  -3.534 -35.774  0.00  0.00    -0.510 N 
ATOM      9  C   UNL     1      -0.347  -7.314 -35.914  0.00  0.00    +0.120 C 
ATOM     10  C   UNL     1      -0.731  -4.889 -35.246  0.00  0.00    +0.230 C 
ENDROOT
BRANCH   5  11
ATOM     11  N   UNL     1       2.561  -3.498 -36.159  0.00  0.00    -0.700 N 
ATOM     12  H   UNL     1       2.661  -4.047 -35.365  0.00  0.00    +0.410 HD
ATOM     13  C   UNL     1       3.540  -3.465 -37.084  0.00  0.00    +0.530 C 
ATOM     14  O   UNL     1       3.414  -2.779 -38.076  0.00  0.00    -0.510 OA
BRANCH  13  15
ATOM     15  C   UNL     1       4.792  -4.279 -36.885  0.00  0.00    +0.230 C 
BRANCH  15  16
ATOM     16  C   UNL     1       5.437  -3.898 -35.578  0.00  0.00    -0.130 A 
ATOM     17  C   UNL     1       6.139  -2.712 -35.473  0.00  0.00    +0.010 A 
ATOM     18  C   UNL     1       6.731  -2.363 -34.273  0.00  0.00    +0.020 A 
ATOM     19  C   UNL     1       6.619  -3.199 -33.178  0.00  0.00    +0.010 A 
ATOM     20  C   UNL     1       5.915  -4.384 -33.282  0.00  0.00    +0.020 A 
ATOM     21  C   UNL     1       5.320  -4.731 -34.480  0.00  0.00    +0.020 A 
ENDBRANCH  15  16
BRANCH  15  22
ATOM     22  N   UNL     1       4.449  -5.708 -36.863  0.00  0.00    -0.820 NA
ATOM     23  H   UNL     1       4.870  -6.168 -36.071  0.00  0.00    +0.350 HD
ATOM     24  H   UNL     1       4.716  -6.157 -37.727  0.00  0.00    +0.360 HD
ENDBRANCH  15  22
ENDBRANCH  13  15
ENDBRANCH   5  11
BRANCH  10  25
ATOM     25  C   UNL     1      -2.041  -4.964 -34.501  0.00  0.00    +0.470 C 
ATOM     26  O   UNL     1      -2.108  -5.570 -33.458  0.00  0.00    -0.440 OA
BRANCH  25  27
ATOM     27  O   UNL     1      -3.131  -4.359 -34.999  0.00  0.00    -0.340 OA
BRANCH  27  28
ATOM     28  C   UNL     1      -4.408  -4.706 -34.400  0.00  0.00    +0.450 C 
ATOM     29  O   UNL     1      -5.206  -3.508 -34.196  0.00  0.00    -0.320 OA
ATOM     30  C   UNL     1      -6.343  -3.614 -34.905  0.00  0.00    +0.520 C 
ATOM     31  C   UNL     1      -6.373  -4.897 -35.630  0.00  0.00    -0.180 A 
ATOM     32  C   UNL     1      -7.312  -5.475 -36.486  0.00  0.00    +0.110 A 
ATOM     33  C   UNL     1      -7.068  -6.718 -37.032  0.00  0.00    +0.030 A 
ATOM     34  C   UNL     1      -5.898  -7.395 -36.735  0.00  0.00    +0.060 A 
ATOM     35  C   UNL     1      -4.961  -6.827 -35.886  0.00  0.00    +0.070 A 
ATOM     36  O   UNL     1      -7.218  -2.773 -34.943  0.00  0.00    -0.430 OA
ATOM     37  C   UNL     1      -5.194  -5.590 -35.337  0.00  0.00    -0.100 A 
ENDBRANCH  27  28
ENDBRANCH  25  27
ENDBRANCH  10  25
TORSDOF 7
ENDMDL
MODEL 6
REMARK VINA RESULT:      -7.2     19.732     23.907
REMARK  Name = ZINC000036378557
REMARK  9 active torsions:
REMARK  status: ('A' for Active; 'I' for Inactive)
REMARK    1  A    between atoms: C1_1  and  C2_2
REMARK    2  A    between atoms: C2_2  and  C3_3
REMARK    3  A    between atoms: C7_7  and  N9_9
REMARK    4  A    between atoms: C10_10  and  C12_12
REMARK    5  A    between atoms: C12_12  and  N14_14
REMARK    6  A    between atoms: C12_12  and  C15_15
REMARK    7  A    between atoms: C24_24  and  C26_26
REMARK    8  A    between atoms: C26_26  and  O28_28
REMARK    9  A    between atoms: O28_28  and  C29_29
REMARK                            x       y       z     vdW  Elec       q    Type
REMARK                         _______ _______ _______ _____ _____    ______ ____
ROOT
ATOM      1  C   UNL     1       7.838  -4.234 -33.283  0.00  0.00    +0.100 C 
ATOM      2  C   UNL     1       7.667  -3.941 -34.775  0.00  0.00    -0.010 C 
ATOM      3  S   UNL     1       7.436  -5.493 -35.741  0.00  0.00    -0.220 S 
ATOM      4  C   UNL     1       5.633  -5.597 -35.432  0.00  0.00    +0.260 C 
ATOM      5  C   UNL     1       4.779  -5.546 -36.693  0.00  0.00    +0.270 C 
ATOM      6  C   UNL     1       4.343  -4.233 -36.099  0.00  0.00    +0.480 C 
ATOM      7  O   UNL     1       3.488  -3.440 -36.430  0.00  0.00    -0.410 OA
ATOM      8  N   UNL     1       5.228  -4.236 -35.056  0.00  0.00    -0.510 N 
ATOM      9  C   UNL     1       8.838  -3.117 -35.314  0.00  0.00    +0.120 C 
ATOM     10  C   UNL     1       6.308  -3.246 -35.063  0.00  0.00    +0.230 C 
ENDROOT
BRANCH   5  11
ATOM     11  N   UNL     1       5.542  -5.425 -37.938  0.00  0.00    -0.700 N 
ATOM     12  H   UNL     1       5.972  -4.585 -38.163  0.00  0.00    +0.410 HD
ATOM     13  C   UNL     1       5.647  -6.481 -38.769  0.00  0.00    +0.530 C 
ATOM     14  O   UNL     1       5.109  -7.531 -38.487  0.00  0.00    -0.510 OA
BRANCH  13  15
ATOM     15  C   UNL     1       6.431  -6.356 -40.049  0.00  0.00    +0.230 C 
BRANCH  15  16
ATOM     16  C   UNL     1       5.484  -6.119 -41.197  0.00  0.00    -0.130 A 
ATOM     17  C   UNL     1       5.968  -5.670 -42.412  0.00  0.00    +0.010 A 
ATOM     18  C   UNL     1       5.099  -5.453 -43.465  0.00  0.00    +0.020 A 
ATOM     19  C   UNL     1       3.746  -5.685 -43.303  0.00  0.00    +0.010 A 
ATOM     20  C   UNL     1       3.262  -6.136 -42.089  0.00  0.00    +0.020 A 
ATOM     21  C   UNL     1       4.132  -6.357 -41.038  0.00  0.00    +0.020 A 
ENDBRANCH  15  16
BRANCH  15  22
ATOM     22  N   UNL     1       7.364  -5.226 -39.944  0.00  0.00    -0.820 NA
ATOM     23  H   UNL     1       8.318  -5.533 -40.055  0.00  0.00    +0.350 HD
ATOM     24  H   UNL     1       7.241  -4.736 -39.070  0.00  0.00    +0.360 HD
ENDBRANCH  15  22
ENDBRANCH  13  15
ENDBRANCH   5  11
BRANCH  10  25
ATOM     25  C   UNL     1       6.036  -2.200 -34.011  0.00  0.00    +0.470 C 
ATOM     26  O   UNL     1       6.645  -1.157 -34.024  0.00  0.00    -0.440 OA
BRANCH  25  27
ATOM     27  O   UNL     1       5.118  -2.430 -33.058  0.00  0.00    -0.340 OA
BRANCH  27  28
ATOM     28  C   UNL     1       4.150  -1.377 -32.809  0.00  0.00    +0.450 C 
ATOM     29  O   UNL     1       3.019  -1.513 -33.713  0.00  0.00    -0.320 OA
ATOM     30  C   UNL     1       1.902  -1.701 -32.991  0.00  0.00    +0.520 C 
ATOM     31  C   UNL     1       2.220  -1.701 -31.551  0.00  0.00    -0.180 A 
ATOM     32  C   UNL     1       1.430  -1.855 -30.411  0.00  0.00    +0.110 A 
ATOM     33  C   UNL     1       2.013  -1.811 -29.162  0.00  0.00    +0.030 A 
ATOM     34  C   UNL     1       3.377  -1.614 -29.034  0.00  0.00    +0.060 A 
ATOM     35  C   UNL     1       4.168  -1.461 -30.162  0.00  0.00    +0.070 A 
ATOM     36  O   UNL     1       0.791  -1.849 -33.458  0.00  0.00    -0.430 OA
ATOM     37  C   UNL     1       3.597  -1.503 -31.411  0.00  0.00    -0.100 A 
ENDBRANCH  27  28
ENDBRANCH  25  27
ENDBRANCH  10  25
TORSDOF 7
ENDMDL
MODEL 7
REMARK VINA RESULT:      -7.1     19.456     21.957
REMARK  Name = ZINC000036378557
REMARK  9 active torsions:
REMARK  status: ('A' for Active; 'I' for Inactive)
REMARK    1  A    between atoms: C1_1  and  C2_2
REMARK    2  A    between atoms: C2_2  and  C3_3
REMARK    3  A    between atoms: C7_7  and  N9_9
REMARK    4  A    between atoms: C10_10  and  C12_12
REMARK    5  A    between atoms: C12_12  and  N14_14
REMARK    6  A    between atoms: C12_12  and  C15_15
REMARK    7  A    between atoms: C24_24  and  C26_26
REMARK    8  A    between atoms: C26_26  and  O28_28
REMARK    9  A    between atoms: O28_28  and  C29_29
REMARK                            x       y       z     vdW  Elec       q    Type
REMARK                         _______ _______ _______ _____ _____    ______ ____
ROOT
ATOM      1  C   UNL     1       0.047  -6.127 -38.390  0.00  0.00    +0.100 C 
ATOM      2  C   UNL     1       0.719  -5.861 -37.041  0.00  0.00    -0.010 C 
ATOM      3  S   UNL     1       1.999  -4.542 -37.179  0.00  0.00    -0.220 S 
ATOM      4  C   UNL     1       0.810  -3.159 -36.995  0.00  0.00    +0.260 C 
ATOM      5  C   UNL     1       1.069  -2.270 -35.784  0.00  0.00    +0.270 C 
ATOM      6  C   UNL     1      -0.243  -2.855 -35.331  0.00  0.00    +0.480 C 
ATOM      7  O   UNL     1      -0.951  -2.610 -34.379  0.00  0.00    -0.410 OA
ATOM      8  N   UNL     1      -0.373  -3.751 -36.356  0.00  0.00    -0.510 N 
ATOM      9  C   UNL     1       1.304  -7.146 -36.453  0.00  0.00    +0.120 C 
ATOM     10  C   UNL     1      -0.259  -5.179 -36.047  0.00  0.00    +0.230 C 
ENDROOT
BRANCH   5  11
ATOM     11  N   UNL     1       2.222  -2.669 -34.974  0.00  0.00    -0.700 N 
ATOM     12  H   UNL     1       2.753  -3.439 -35.233  0.00  0.00    +0.410 HD
ATOM     13  C   UNL     1       2.548  -1.966 -33.872  0.00  0.00    +0.530 C 
ATOM     14  O   UNL     1       1.884  -1.003 -33.549  0.00  0.00    -0.510 OA
BRANCH  13  15
ATOM     15  C   UNL     1       3.734  -2.376 -33.039  0.00  0.00    +0.230 C 
BRANCH  15  16
ATOM     16  C   UNL     1       3.346  -2.388 -31.583  0.00  0.00    -0.130 A 
ATOM     17  C   UNL     1       3.847  -1.428 -30.725  0.00  0.00    +0.010 A 
ATOM     18  C   UNL     1       3.491  -1.439 -29.389  0.00  0.00    +0.020 A 
ATOM     19  C   UNL     1       2.633  -2.411 -28.911  0.00  0.00    +0.010 A 
ATOM     20  C   UNL     1       2.130  -3.372 -29.769  0.00  0.00    +0.020 A 
ATOM     21  C   UNL     1       2.483  -3.358 -31.106  0.00  0.00    +0.020 A 
ENDBRANCH  15  16
BRANCH  15  22
ATOM     22  N   UNL     1       4.172  -3.721 -33.439  0.00  0.00    -0.820 NA
ATOM     23  H   UNL     1       4.231  -3.798 -34.443  0.00  0.00    +0.350 HD
ATOM     24  H   UNL     1       3.561  -4.428 -33.057  0.00  0.00    +0.360 HD
ENDBRANCH  15  22
ENDBRANCH  13  15
ENDBRANCH   5  11
BRANCH  10  25
ATOM     25  C   UNL     1      -1.619  -5.823 -36.143  0.00  0.00    +0.470 C 
ATOM     26  O   UNL     1      -1.729  -7.021 -36.035  0.00  0.00    -0.440 OA
BRANCH  25  27
ATOM     27  O   UNL     1      -2.707  -5.064 -36.351  0.00  0.00    -0.340 OA
BRANCH  27  28
ATOM     28  C   UNL     1      -3.781  -5.174 -35.379  0.00  0.00    +0.450 C 
ATOM     29  O   UNL     1      -4.090  -3.865 -34.828  0.00  0.00    -0.320 OA
ATOM     30  C   UNL     1      -5.369  -3.562 -35.111  0.00  0.00    +0.520 C 
ATOM     31  C   UNL     1      -5.995  -4.657 -35.874  0.00  0.00    -0.180 A 
ATOM     32  C   UNL     1      -7.276  -4.829 -36.398  0.00  0.00    +0.110 A 
ATOM     33  C   UNL     1      -7.587  -5.985 -37.084  0.00  0.00    +0.030 A 
ATOM     34  C   UNL     1      -6.635  -6.974 -37.255  0.00  0.00    +0.060 A 
ATOM     35  C   UNL     1      -5.359  -6.809 -36.738  0.00  0.00    +0.070 A 
ATOM     36  O   UNL     1      -5.927  -2.534 -34.786  0.00  0.00    -0.430 OA
ATOM     37  C   UNL     1      -5.039  -5.663 -36.053  0.00  0.00    -0.100 A 
ENDBRANCH  27  28
ENDBRANCH  25  27
ENDBRANCH  10  25
TORSDOF 7
ENDMDL
MODEL 8
REMARK VINA RESULT:      -7.0      1.971      2.608
REMARK  Name = ZINC000036378557
REMARK  9 active torsions:
REMARK  status: ('A' for Active; 'I' for Inactive)
REMARK    1  A    between atoms: C1_1  and  C2_2
REMARK    2  A    between atoms: C2_2  and  C3_3
REMARK    3  A    between atoms: C7_7  and  N9_9
REMARK    4  A    between atoms: C10_10  and  C12_12
REMARK    5  A    between atoms: C12_12  and  N14_14
REMARK    6  A    between atoms: C12_12  and  C15_15
REMARK    7  A    between atoms: C24_24  and  C26_26
REMARK    8  A    between atoms: C26_26  and  O28_28
REMARK    9  A    between atoms: O28_28  and  C29_29
REMARK                            x       y       z     vdW  Elec       q    Type
REMARK                         _______ _______ _______ _____ _____    ______ ____
ROOT
ATOM      1  C   UNL     1      -2.850  18.143 -35.167  0.00  0.00    +0.100 C 
ATOM      2  C   UNL     1      -2.822  18.104 -33.637  0.00  0.00    -0.010 C 
ATOM      3  S   UNL     1      -4.291  18.953 -32.918  0.00  0.00    -0.220 S 
ATOM      4  C   UNL     1      -5.390  17.492 -33.053  0.00  0.00    +0.260 C 
ATOM      5  C   UNL     1      -5.934  16.994 -31.720  0.00  0.00    +0.270 C 
ATOM      6  C   UNL     1      -5.071  15.804 -32.045  0.00  0.00    +0.480 C 
ATOM      7  O   UNL     1      -4.942  14.727 -31.504  0.00  0.00    -0.410 OA
ATOM      8  N   UNL     1      -4.486  16.339 -33.160  0.00  0.00    -0.510 N 
ATOM      9  C   UNL     1      -1.517  18.691 -33.094  0.00  0.00    +0.120 C 
ATOM     10  C   UNL     1      -3.059  16.666 -33.103  0.00  0.00    +0.230 C 
ENDROOT
BRANCH   5  11
ATOM     11  N   UNL     1      -5.490  17.766 -30.557  0.00  0.00    -0.700 N 
ATOM     12  H   UNL     1      -4.945  18.559 -30.682  0.00  0.00    +0.410 HD
ATOM     13  C   UNL     1      -5.838  17.375 -29.315  0.00  0.00    +0.530 C 
ATOM     14  O   UNL     1      -6.519  16.383 -29.160  0.00  0.00    -0.510 OA
BRANCH  13  15
ATOM     15  C   UNL     1      -5.380  18.169 -28.120  0.00  0.00    +0.230 C 
BRANCH  15  16
ATOM     16  C   UNL     1      -4.199  17.482 -27.483  0.00  0.00    -0.130 A 
ATOM     17  C   UNL     1      -4.399  16.529 -26.503  0.00  0.00    +0.010 A 
ATOM     18  C   UNL     1      -3.315  15.900 -25.919  0.00  0.00    +0.020 A 
ATOM     19  C   UNL     1      -2.031  16.224 -26.316  0.00  0.00    +0.010 A 
ATOM     20  C   UNL     1      -1.832  17.177 -27.298  0.00  0.00    +0.020 A 
ATOM     21  C   UNL     1      -2.915  17.802 -27.884  0.00  0.00    +0.020 A 
ENDBRANCH  15  16
BRANCH  15  22
ATOM     22  N   UNL     1      -4.989  19.518 -28.548  0.00  0.00    -0.820 NA
ATOM     23  H   UNL     1      -5.772  20.152 -28.507  0.00  0.00    +0.350 HD
ATOM     24  H   UNL     1      -4.586  19.501 -29.474  0.00  0.00    +0.360 HD
ENDBRANCH  15  22
ENDBRANCH  13  15
ENDBRANCH   5  11
BRANCH  10  25
ATOM     25  C   UNL     1      -2.285  15.676 -33.938  0.00  0.00    +0.470 C 
ATOM     26  O   UNL     1      -2.787  15.200 -34.929  0.00  0.00    -0.440 OA
BRANCH  25  27
ATOM     27  O   UNL     1      -1.041  15.324 -33.579  0.00  0.00    -0.340 OA
BRANCH  27  28
ATOM     28  C   UNL     1      -0.899  14.569 -32.346  0.00  0.00    +0.450 C 
ATOM     29  O   UNL     1      -0.242  13.300 -32.610  0.00  0.00    -0.320 OA
ATOM     30  C   UNL     1       0.904  13.247 -31.910  0.00  0.00    +0.520 C 
ATOM     31  C   UNL     1       1.082  14.487 -31.131  0.00  0.00    -0.180 A 
ATOM     32  C   UNL     1       2.085  14.919 -30.263  0.00  0.00    +0.110 A 
ATOM     33  C   UNL     1       1.986  16.156 -29.661  0.00  0.00    +0.030 A 
ATOM     34  C   UNL     1       0.896  16.970 -29.915  0.00  0.00    +0.060 A 
ATOM     35  C   UNL     1      -0.103  16.548 -30.777  0.00  0.00    +0.070 A 
ATOM     36  O   UNL     1       1.681  12.314 -31.919  0.00  0.00    -0.430 OA
ATOM     37  C   UNL     1      -0.014  15.318 -31.381  0.00  0.00    -0.100 A 
ENDBRANCH  27  28
ENDBRANCH  25  27
ENDBRANCH  10  25
TORSDOF 7
ENDMDL
MODEL 9
REMARK VINA RESULT:      -7.0     20.095     22.926
REMARK  Name = ZINC000036378557
REMARK  9 active torsions:
REMARK  status: ('A' for Active; 'I' for Inactive)
REMARK    1  A    between atoms: C1_1  and  C2_2
REMARK    2  A    between atoms: C2_2  and  C3_3
REMARK    3  A    between atoms: C7_7  and  N9_9
REMARK    4  A    between atoms: C10_10  and  C12_12
REMARK    5  A    between atoms: C12_12  and  N14_14
REMARK    6  A    between atoms: C12_12  and  C15_15
REMARK    7  A    between atoms: C24_24  and  C26_26
REMARK    8  A    between atoms: C26_26  and  O28_28
REMARK    9  A    between atoms: O28_28  and  C29_29
REMARK                            x       y       z     vdW  Elec       q    Type
REMARK                         _______ _______ _______ _____ _____    ______ ____
ROOT
ATOM      1  C   UNL     1       5.254  -6.302 -32.339  0.00  0.00    +0.100 C 
ATOM      2  C   UNL     1       4.898  -5.485 -33.583  0.00  0.00    -0.010 C 
ATOM      3  S   UNL     1       3.084  -5.172 -33.681  0.00  0.00    -0.220 S 
ATOM      4  C   UNL     1       3.125  -3.705 -32.582  0.00  0.00    +0.260 C 
ATOM      5  C   UNL     1       2.647  -2.417 -33.242  0.00  0.00    +0.270 C 
ATOM      6  C   UNL     1       4.089  -2.027 -33.057  0.00  0.00    +0.480 C 
ATOM      7  O   UNL     1       4.674  -0.982 -33.239  0.00  0.00    -0.410 OA
ATOM      8  N   UNL     1       4.520  -3.245 -32.606  0.00  0.00    -0.510 N 
ATOM      9  C   UNL     1       5.417  -6.159 -34.854  0.00  0.00    +0.120 C 
ATOM     10  C   UNL     1       5.413  -4.025 -33.467  0.00  0.00    +0.230 C 
ENDROOT
BRANCH   5  11
ATOM     11  N   UNL     1       2.234  -2.568 -34.639  0.00  0.00    -0.700 N 
ATOM     12  H   UNL     1       2.892  -2.783 -35.319  0.00  0.00    +0.410 HD
ATOM     13  C   UNL     1       0.940  -2.410 -34.981  0.00  0.00    +0.530 C 
ATOM     14  O   UNL     1       0.117  -2.142 -34.131  0.00  0.00    -0.510 OA
BRANCH  13  15
ATOM     15  C   UNL     1       0.515  -2.566 -36.418  0.00  0.00    +0.230 C 
BRANCH  15  16
ATOM     16  C   UNL     1       1.368  -3.616 -37.082  0.00  0.00    -0.130 A 
ATOM     17  C   UNL     1       2.629  -3.292 -37.545  0.00  0.00    +0.010 A 
ATOM     18  C   UNL     1       3.411  -4.255 -38.155  0.00  0.00    +0.020 A 
ATOM     19  C   UNL     1       2.931  -5.543 -38.302  0.00  0.00    +0.010 A 
ATOM     20  C   UNL     1       1.670  -5.868 -37.838  0.00  0.00    +0.020 A 
ATOM     21  C   UNL     1       0.890  -4.906 -37.224  0.00  0.00    +0.020 A 
ENDBRANCH  15  16
BRANCH  15  22
ATOM     22  N   UNL     1      -0.894  -2.975 -36.470  0.00  0.00    -0.820 NA
ATOM     23  H   UNL     1      -1.132  -3.556 -35.681  0.00  0.00    +0.350 HD
ATOM     24  H   UNL     1      -1.102  -3.444 -37.340  0.00  0.00    +0.360 HD
ENDBRANCH  15  22
ENDBRANCH  13  15
ENDBRANCH   5  11
BRANCH  10  25
ATOM     25  C   UNL     1       6.803  -4.018 -32.883  0.00  0.00    +0.470 C 
ATOM     26  O   UNL     1       6.997  -3.541 -31.790  0.00  0.00    -0.440 OA
BRANCH  25  27
ATOM     27  O   UNL     1       7.826  -4.539 -33.579  0.00  0.00    -0.340 OA
BRANCH  27  28
ATOM     28  C   UNL     1       8.607  -3.622 -34.390  0.00  0.00    +0.450 C 
ATOM     29  O   UNL     1      10.026  -3.812 -34.132  0.00  0.00    -0.320 OA
ATOM     30  C   UNL     1      10.632  -4.177 -35.274  0.00  0.00    +0.520 C 
ATOM     31  C   UNL     1       9.650  -4.253 -36.371  0.00  0.00    -0.180 A 
ATOM     32  C   UNL     1       9.768  -4.581 -37.722  0.00  0.00    +0.110 A 
ATOM     33  C   UNL     1       8.651  -4.568 -38.531  0.00  0.00    +0.030 A 
ATOM     34  C   UNL     1       7.414  -4.232 -38.009  0.00  0.00    +0.060 A 
ATOM     35  C   UNL     1       7.289  -3.907 -36.668  0.00  0.00    +0.070 A 
ATOM     36  O   UNL     1      11.818  -4.411 -35.386  0.00  0.00    -0.430 OA
ATOM     37  C   UNL     1       8.395  -3.916 -35.854  0.00  0.00    -0.100 A 
ENDBRANCH  27  28
ENDBRANCH  25  27
ENDBRANCH  10  25
TORSDOF 7
ENDMDL
