REMARK  Name = ZINC000036378557
REMARK  9 active torsions:
REMARK  status: ('A' for Active; 'I' for Inactive)
REMARK    1  A    between atoms: C1_1  and  C2_2
REMARK    2  A    between atoms: C2_2  and  C3_3
REMARK    3  A    between atoms: C7_7  and  N9_9
REMARK    4  A    between atoms: C10_10  and  C12_12
REMARK    5  A    between atoms: C12_12  and  N14_14
REMARK    6  A    between atoms: C12_12  and  C15_15
REMARK    7  A    between atoms: C24_24  and  C26_26
REMARK    8  A    between atoms: C26_26  and  O28_28
REMARK    9  A    between atoms: O28_28  and  C29_29
REMARK                            x       y       z     vdW  Elec       q    Type
REMARK                         _______ _______ _______ _____ _____    ______ ____
ROOT
ATOM      1  C   UNL     1      -0.019   1.526   0.010  0.00  0.00    +0.100 C 
ATOM      2  C   UNL     1       0.002  -0.004   0.002  0.00  0.00    -0.010 C 
ATOM      3  S   UNL     1       1.091  -0.652  -1.336  0.00  0.00    -0.220 S 
ATOM      4  C   UNL     1       2.633  -0.517  -0.354  0.00  0.00    +0.260 C 
ATOM      5  C   UNL     1       3.348  -1.844  -0.128  0.00  0.00    +0.270 C 
ATOM      6  C   UNL     1       2.955  -1.578   1.301  0.00  0.00    +0.480 C 
ATOM      7  O   UNL     1       3.228  -2.150   2.334  0.00  0.00    -0.410 OA
ATOM      8  N   UNL     1       2.194  -0.470   1.047  0.00  0.00    -0.510 N 
ATOM      9  C   UNL     1      -1.413  -0.575  -0.105  0.00  0.00    +0.120 C 
ATOM     10  C   UNL     1       0.745  -0.566   1.244  0.00  0.00    +0.230 C 
ENDROOT
BRANCH   5  11
ATOM     11  N   UNL     1       2.685  -3.001  -0.734  0.00  0.00    -0.700 N 
ATOM     12  H   UNL     1       1.730  -2.978  -0.904  0.00  0.00    +0.410 HD
ATOM     13  C   UNL     1       3.401  -4.096  -1.056  0.00  0.00    +0.530 C 
ATOM     14  O   UNL     1       4.595  -4.124  -0.843  0.00  0.00    -0.510 OA
BRANCH  13  15
ATOM     15  C   UNL     1       2.719  -5.286  -1.679  0.00  0.00    +0.230 C 
BRANCH  15  16
ATOM     16  C   UNL     1       2.515  -5.034  -3.151  0.00  0.00    -0.130 A 
ATOM     17  C   UNL     1       3.560  -5.220  -4.036  0.00  0.00    +0.010 A 
ATOM     18  C   UNL     1       3.373  -4.988  -5.386  0.00  0.00    +0.020 A 
ATOM     19  C   UNL     1       2.140  -4.571  -5.851  0.00  0.00    +0.010 A 
ATOM     20  C   UNL     1       1.094  -4.386  -4.966  0.00  0.00    +0.020 A 
ATOM     21  C   UNL     1       1.280  -4.622  -3.617  0.00  0.00    +0.020 A 
ENDBRANCH  15  16
BRANCH  15  22
ATOM     22  N   UNL     1       3.556  -6.480  -1.499  0.00  0.00    -0.820 NA
ATOM     23  H   UNL     1       4.457  -6.359  -1.935  0.00  0.00    +0.350 HD
ATOM     24  H   UNL     1       3.091  -7.304  -1.852  0.00  0.00    +0.360 HD
ENDBRANCH  15  22
ENDBRANCH  13  15
ENDBRANCH   5  11
BRANCH  10  25
ATOM     25  C   UNL     1       0.354   0.217   2.472  0.00  0.00    +0.470 C 
ATOM     26  O   UNL     1       1.104   1.052   2.920  0.00  0.00    -0.440 OA
BRANCH  25  27
ATOM     27  O   UNL     1      -0.826  -0.015   3.068  0.00  0.00    -0.340 OA
BRANCH  27  28
ATOM     28  C   UNL     1      -1.136   0.776   4.246  0.00  0.00    +0.450 C 
ATOM     29  O   UNL     1      -1.432   2.147   3.863  0.00  0.00    -0.320 OA
ATOM     30  C   UNL     1      -2.688   2.444   4.237  0.00  0.00    +0.520 C 
ATOM     31  C   UNL     1      -3.311   1.282   4.897  0.00  0.00    -0.180 A 
ATOM     32  C   UNL     1      -4.574   1.079   5.454  0.00  0.00    +0.110 A 
ATOM     33  C   UNL     1      -4.888  -0.141   6.016  0.00  0.00    +0.030 A 
ATOM     34  C   UNL     1      -3.956  -1.164   6.030  0.00  0.00    +0.060 A 
ATOM     35  C   UNL     1      -2.700  -0.970   5.478  0.00  0.00    +0.070 A 
ATOM     36  O   UNL     1      -3.231   3.515   4.057  0.00  0.00    -0.430 OA
ATOM     37  C   UNL     1      -2.377   0.241   4.916  0.00  0.00    -0.100 A 
ENDBRANCH  27  28
ENDBRANCH  25  27
ENDBRANCH  10  25
TORSDOF 7
