REMARK  Name = ZINC000003992480
REMARK  18 active torsions:
REMARK  status: ('A' for Active; 'I' for Inactive)
REMARK    1  A    between atoms: C1_1  and  C2_2
REMARK    2  A    between atoms: C2_2  and  C3_3
REMARK    3  A    between atoms: C3_3  and  C4_4
REMARK    4  A    between atoms: C4_4  and  N6_6
REMARK    5  A    between atoms: C4_4  and  C48_48
REMARK    6  A    between atoms: C7_7  and  C9_9
REMARK    7  A    between atoms: C20_20  and  C22_22
REMARK    8  A    between atoms: C22_22  and  N24_24
REMARK    9  A    between atoms: C22_22  and  C44_44
REMARK   10  A    between atoms: C25_25  and  C27_27
REMARK   11  A    between atoms: C27_27  and  N29_29
REMARK   12  A    between atoms: C27_27  and  C38_38
REMARK   13  A    between atoms: C30_30  and  C32_32
REMARK   14  A    between atoms: C44_44  and  C45_45
REMARK   15  A    between atoms: C44_44  and  C46_46
REMARK   16  A    between atoms: C44_44  and  C47_47
REMARK   17  A    between atoms: C48_48  and  C50_50
REMARK   18  A    between atoms: N52_52  and  C53_53
REMARK                            x       y       z     vdW  Elec       q    Type
REMARK                         _______ _______ _______ _____ _____    ______ ____
ROOT
ATOM      1  C   UNL     1       1.014  -3.107  -2.833  0.00  0.00    +0.230 C 
ATOM      2  C   UNL     1       0.789  -4.288  -3.786  0.00  0.00    +0.010 C 
ATOM      3  C   UNL     1       0.129  -3.783  -5.090  0.00  0.00    +0.030 C 
ATOM      4  C   UNL     1       0.660  -4.778  -6.150  0.00  0.00    +0.020 C 
ATOM      5  C   UNL     1       2.121  -5.036  -5.730  0.00  0.00    +0.020 C 
ATOM      6  C   UNL     1       2.215  -4.728  -4.215  0.00  0.00    +0.000 C 
ATOM      7  C   UNL     1       3.062  -3.455  -4.022  0.00  0.00    +0.250 C 
ATOM      8  N   UNL     1       2.398  -2.651  -2.993  0.00  0.00    -0.590 N 
ATOM      9  C   UNL     1       2.972  -1.652  -2.293  0.00  0.00    +0.540 C 
ATOM     10  O   UNL     1       2.305  -0.982  -1.534  0.00  0.00    -0.520 OA
ENDROOT
BRANCH   1  13
ATOM     11  N   UNL     1      -0.470  -3.652  -0.930  0.00  0.00    -0.720 N 
ATOM     12  H   UNL     1      -1.226  -3.440  -1.500  0.00  0.00    +0.410 HD
ATOM     13  C   UNL     1       0.785  -3.551  -1.411  0.00  0.00    +0.510 C 
ATOM     14  O   UNL     1       1.730  -3.816  -0.699  0.00  0.00    -0.510 OA
BRANCH  11  15
ATOM     15  C   UNL     1      -0.693  -4.083   0.452  0.00  0.00    +0.250 C 
BRANCH  15  16
ATOM     16  C   UNL     1      -2.064  -4.696   0.572  0.00  0.00    +0.350 C 
ATOM     17  O   UNL     1      -2.880  -4.529  -0.303  0.00  0.00    -0.410 OA
BRANCH  16  18
ATOM     18  C   UNL     1      -2.415  -5.509   1.772  0.00  0.00    +0.480 C 
ATOM     19  N   UNL     1      -3.641  -6.057   1.879  0.00  0.00    -0.680 N 
ATOM     20  H   UNL     1      -4.296  -5.923   1.177  0.00  0.00    +0.410 HD
ATOM     21  O   UNL     1      -1.595  -5.678   2.651  0.00  0.00    -0.490 OA
BRANCH  19  22
ATOM     22  C   UNL     1      -3.986  -6.856   3.058  0.00  0.00    +0.210 C 
ATOM     23  C   UNL     1      -5.357  -6.622   3.694  0.00  0.00    +0.020 C 
ATOM     24  C   UNL     1      -5.090  -7.904   2.903  0.00  0.00    +0.030 C 
ENDBRANCH  19  22
ENDBRANCH  16  18
ENDBRANCH  15  16
BRANCH  15  25
ATOM     25  C   UNL     1      -0.590  -2.876   1.385  0.00  0.00    +0.030 C 
BRANCH  25  27
ATOM     26  C   UNL     1       0.941  -1.121   2.291  0.00  0.00    +0.000 C 
ATOM     27  C   UNL     1       0.839  -2.329   1.357  0.00  0.00    +0.030 C 
ENDBRANCH  25  27
ENDBRANCH  15  25
ENDBRANCH  11  15
ENDBRANCH   1  13
BRANCH   9  28
ATOM     28  C   UNL     1       4.444  -1.369  -2.454  0.00  0.00    +0.260 C 
BRANCH  28  29
ATOM     29  C   UNL     1       5.229  -2.124  -1.381  0.00  0.00    -0.070 C 
ATOM     30  C   UNL     1       4.769  -1.667   0.005  0.00  0.00    +0.040 C 
ATOM     31  C   UNL     1       6.723  -1.835  -1.543  0.00  0.00    +0.030 C 
ATOM     32  C   UNL     1       4.982  -3.627  -1.530  0.00  0.00    +0.030 C 
ENDBRANCH  28  29
BRANCH  28  33
ATOM     33  N   UNL     1       4.682   0.070  -2.312  0.00  0.00    -0.710 N 
ATOM     34  H   UNL     1       4.063   0.616  -1.803  0.00  0.00    +0.410 HD
ATOM     35  C   UNL     1       5.762   0.634  -2.888  0.00  0.00    +0.520 C 
ATOM     36  O   UNL     1       6.574  -0.059  -3.463  0.00  0.00    -0.520 OA
BRANCH  35  37
ATOM     37  C   UNL     1       5.960   2.126  -2.819  0.00  0.00    +0.240 C 
BRANCH  37  38
ATOM     38  C   UNL     1       5.132   2.802  -3.913  0.00  0.00    -0.010 C 
ATOM     39  C   UNL     1       3.644   2.557  -3.653  0.00  0.00    +0.020 C 
ATOM     40  C   UNL     1       2.816   3.232  -4.747  0.00  0.00    +0.010 C 
ATOM     41  C   UNL     1       3.093   4.737  -4.740  0.00  0.00    +0.000 C 
ATOM     42  C   UNL     1       4.581   4.983  -5.001  0.00  0.00    +0.000 C 
ATOM     43  C   UNL     1       5.409   4.307  -3.907  0.00  0.00    +0.040 C 
ENDBRANCH  37  38
BRANCH  37  44
ATOM     44  N   UNL     1       7.377   2.441  -3.014  0.00  0.00    -0.690 N 
ATOM     45  H   UNL     1       7.947   1.826  -3.503  0.00  0.00    +0.420 HD
ATOM     46  C   UNL     1       7.889   3.583  -2.516  0.00  0.00    +0.580 C 
ATOM     47  O   UNL     1       7.175   4.353  -1.904  0.00  0.00    -0.520 OA
BRANCH  46  48
ATOM     48  C   UNL     1       9.323   3.901  -2.714  0.00  0.00    +0.030 A 
ATOM     49  C   UNL     1       9.855   5.080  -2.194  0.00  0.00    +0.290 A 
ATOM     50  N   UNL     1      11.134   5.359  -2.373  0.00  0.00    -0.440 NA
ATOM     51  C   UNL     1      11.907   4.523  -3.044  0.00  0.00    +0.260 A 
ATOM     52  C   UNL     1      11.379   3.349  -3.562  0.00  0.00    +0.230 A 
ATOM     53  N   UNL     1      10.106   3.060  -3.383  0.00  0.00    -0.410 NA
ENDBRANCH  46  48
ENDBRANCH  37  44
ENDBRANCH  35  37
ENDBRANCH  28  33
ENDBRANCH   9  28
TORSDOF 14
