MODEL 1
REMARK VINA RESULT:      -7.0      0.000      0.000
REMARK  Name = ZINC000003992480
REMARK  18 active torsions:
REMARK  status: ('A' for Active; 'I' for Inactive)
REMARK    1  A    between atoms: C1_1  and  C2_2
REMARK    2  A    between atoms: C2_2  and  C3_3
REMARK    3  A    between atoms: C3_3  and  C4_4
REMARK    4  A    between atoms: C4_4  and  N6_6
REMARK    5  A    between atoms: C4_4  and  C48_48
REMARK    6  A    between atoms: C7_7  and  C9_9
REMARK    7  A    between atoms: C20_20  and  C22_22
REMARK    8  A    between atoms: C22_22  and  N24_24
REMARK    9  A    between atoms: C22_22  and  C44_44
REMARK   10  A    between atoms: C25_25  and  C27_27
REMARK   11  A    between atoms: C27_27  and  N29_29
REMARK   12  A    between atoms: C27_27  and  C38_38
REMARK   13  A    between atoms: C30_30  and  C32_32
REMARK   14  A    between atoms: C44_44  and  C45_45
REMARK   15  A    between atoms: C44_44  and  C46_46
REMARK   16  A    between atoms: C44_44  and  C47_47
REMARK   17  A    between atoms: C48_48  and  C50_50
REMARK   18  A    between atoms: N52_52  and  C53_53
REMARK                            x       y       z     vdW  Elec       q    Type
REMARK                         _______ _______ _______ _____ _____    ______ ____
ROOT
ATOM      1  C   UNL     1      -2.656  20.860 -24.309  0.00  0.00    +0.230 C 
ATOM      2  C   UNL     1      -2.233  22.168 -23.629  0.00  0.00    +0.010 C 
ATOM      3  C   UNL     1      -0.984  21.917 -22.753  0.00  0.00    +0.030 C 
ATOM      4  C   UNL     1      -0.256  23.283 -22.795  0.00  0.00    +0.020 C 
ATOM      5  C   UNL     1      -0.457  23.775 -24.243  0.00  0.00    +0.020 C 
ATOM      6  C   UNL     1      -1.724  23.069 -24.787  0.00  0.00    +0.000 C 
ATOM      7  C   UNL     1      -1.299  22.061 -25.872  0.00  0.00    +0.250 C 
ATOM      8  N   UNL     1      -2.090  20.846 -25.661  0.00  0.00    -0.590 N 
ATOM      9  C   UNL     1      -2.278  19.870 -26.572  0.00  0.00    +0.540 C 
ATOM     10  O   UNL     1      -2.868  18.857 -26.262  0.00  0.00    -0.520 OA
ENDROOT
BRANCH   1  13
ATOM     11  N   UNL     1      -4.788  19.606 -24.238  0.00  0.00    -0.720 N 
ATOM     12  H   UNL     1      -4.271  18.799 -24.083  0.00  0.00    +0.410 HD
ATOM     13  C   UNL     1      -4.160  20.789 -24.385  0.00  0.00    +0.510 C 
ATOM     14  O   UNL     1      -4.804  21.798 -24.580  0.00  0.00    -0.510 OA
BRANCH  11  15
ATOM     15  C   UNL     1      -6.249  19.537 -24.313  0.00  0.00    +0.250 C 
BRANCH  15  16
ATOM     16  C   UNL     1      -6.817  19.398 -22.924  0.00  0.00    +0.350 C 
ATOM     17  O   UNL     1      -6.681  18.364 -22.316  0.00  0.00    -0.410 OA
BRANCH  16  18
ATOM     18  C   UNL     1      -7.548  20.539 -22.300  0.00  0.00    +0.480 C 
ATOM     19  N   UNL     1      -7.017  21.776 -22.331  0.00  0.00    -0.680 N 
ATOM     20  H   UNL     1      -6.160  21.927 -22.759  0.00  0.00    +0.410 HD
ATOM     21  O   UNL     1      -8.621  20.351 -21.766  0.00  0.00    -0.490 OA
BRANCH  19  22
ATOM     22  C   UNL     1      -7.735  22.897 -21.718  0.00  0.00    +0.210 C 
ATOM     23  C   UNL     1      -7.012  23.688 -20.627  0.00  0.00    +0.020 C 
ATOM     24  C   UNL     1      -7.223  24.309 -22.009  0.00  0.00    +0.030 C 
ENDBRANCH  19  22
ENDBRANCH  16  18
ENDBRANCH  15  16
BRANCH  15  25
ATOM     25  C   UNL     1      -6.660  18.329 -25.156  0.00  0.00    +0.030 C 
BRANCH  25  27
ATOM     26  C   UNL     1      -7.651  20.288 -26.348  0.00  0.00    +0.000 C 
ATOM     27  C   UNL     1      -7.276  18.810 -26.471  0.00  0.00    +0.030 C 
ENDBRANCH  25  27
ENDBRANCH  15  25
ENDBRANCH  11  15
ENDBRANCH   1  13
BRANCH   9  28
ATOM     28  C   UNL     1      -1.754  20.039 -27.975  0.00  0.00    +0.260 C 
BRANCH  28  29
ATOM     29  C   UNL     1      -2.883  19.782 -28.975  0.00  0.00    -0.070 C 
ATOM     30  C   UNL     1      -4.221  20.173 -28.346  0.00  0.00    +0.040 C 
ATOM     31  C   UNL     1      -2.908  18.297 -29.345  0.00  0.00    +0.030 C 
ATOM     32  C   UNL     1      -2.648  20.617 -30.236  0.00  0.00    +0.030 C 
ENDBRANCH  28  29
BRANCH  28  33
ATOM     33  N   UNL     1      -0.668  19.084 -28.208  0.00  0.00    -0.710 N 
ATOM     34  H   UNL     1      -0.794  18.145 -28.000  0.00  0.00    +0.410 HD
ATOM     35  C   UNL     1       0.507  19.510 -28.714  0.00  0.00    +0.520 C 
ATOM     36  O   UNL     1       0.640  20.670 -29.042  0.00  0.00    -0.520 OA
BRANCH  35  37
ATOM     37  C   UNL     1       1.654  18.546 -28.870  0.00  0.00    +0.240 C 
BRANCH  37  38
ATOM     38  C   UNL     1       2.973  19.321 -28.884  0.00  0.00    -0.010 C 
ATOM     39  C   UNL     1       4.005  18.589 -28.022  0.00  0.00    +0.020 C 
ATOM     40  C   UNL     1       5.323  19.364 -28.035  0.00  0.00    +0.010 C 
ATOM     41  C   UNL     1       5.840  19.465 -29.472  0.00  0.00    +0.000 C 
ATOM     42  C   UNL     1       4.809  20.198 -30.335  0.00  0.00    +0.000 C 
ATOM     43  C   UNL     1       3.490  19.423 -30.321  0.00  0.00    +0.040 C 
ENDBRANCH  37  38
BRANCH  37  44
ATOM     44  N   UNL     1       1.507  17.810 -30.127  0.00  0.00    -0.690 N 
ATOM     45  H   UNL     1       1.876  18.174 -30.948  0.00  0.00    +0.420 HD
ATOM     46  C   UNL     1       0.860  16.628 -30.145  0.00  0.00    +0.580 C 
ATOM     47  O   UNL     1       0.398  16.172 -29.118  0.00  0.00    -0.520 OA
BRANCH  46  48
ATOM     48  C   UNL     1       0.712  15.883 -31.418  0.00  0.00    +0.030 A 
ATOM     49  C   UNL     1       1.549  14.804 -31.697  0.00  0.00    +0.290 A 
ATOM     50  N   UNL     1       1.413  14.143 -32.833  0.00  0.00    -0.440 NA
ATOM     51  C   UNL     1       0.486  14.505 -33.703  0.00  0.00    +0.260 A 
ATOM     52  C   UNL     1      -0.348  15.579 -33.427  0.00  0.00    +0.230 A 
ATOM     53  N   UNL     1      -0.223  16.240 -32.294  0.00  0.00    -0.410 NA
ENDBRANCH  46  48
ENDBRANCH  37  44
ENDBRANCH  35  37
ENDBRANCH  28  33
ENDBRANCH   9  28
TORSDOF 14
ENDMDL
MODEL 2
REMARK VINA RESULT:      -6.9      3.269      6.390
REMARK  Name = ZINC000003992480
REMARK  18 active torsions:
REMARK  status: ('A' for Active; 'I' for Inactive)
REMARK    1  A    between atoms: C1_1  and  C2_2
REMARK    2  A    between atoms: C2_2  and  C3_3
REMARK    3  A    between atoms: C3_3  and  C4_4
REMARK    4  A    between atoms: C4_4  and  N6_6
REMARK    5  A    between atoms: C4_4  and  C48_48
REMARK    6  A    between atoms: C7_7  and  C9_9
REMARK    7  A    between atoms: C20_20  and  C22_22
REMARK    8  A    between atoms: C22_22  and  N24_24
REMARK    9  A    between atoms: C22_22  and  C44_44
REMARK   10  A    between atoms: C25_25  and  C27_27
REMARK   11  A    between atoms: C27_27  and  N29_29
REMARK   12  A    between atoms: C27_27  and  C38_38
REMARK   13  A    between atoms: C30_30  and  C32_32
REMARK   14  A    between atoms: C44_44  and  C45_45
REMARK   15  A    between atoms: C44_44  and  C46_46
REMARK   16  A    between atoms: C44_44  and  C47_47
REMARK   17  A    between atoms: C48_48  and  C50_50
REMARK   18  A    between atoms: N52_52  and  C53_53
REMARK                            x       y       z     vdW  Elec       q    Type
REMARK                         _______ _______ _______ _____ _____    ______ ____
ROOT
ATOM      1  C   UNL     1      -2.969  18.658 -28.587  0.00  0.00    +0.230 C 
ATOM      2  C   UNL     1      -3.725  19.669 -29.459  0.00  0.00    +0.010 C 
ATOM      3  C   UNL     1      -3.122  21.079 -29.258  0.00  0.00    +0.030 C 
ATOM      4  C   UNL     1      -3.371  21.756 -30.628  0.00  0.00    +0.020 C 
ATOM      5  C   UNL     1      -3.127  20.633 -31.656  0.00  0.00    +0.020 C 
ATOM      6  C   UNL     1      -3.354  19.290 -30.918  0.00  0.00    +0.000 C 
ATOM      7  C   UNL     1      -1.999  18.571 -30.774  0.00  0.00    +0.250 C 
ATOM      8  N   UNL     1      -1.955  18.007 -29.422  0.00  0.00    -0.590 N 
ATOM      9  C   UNL     1      -1.119  17.033 -29.011  0.00  0.00    +0.540 C 
ATOM     10  O   UNL     1      -1.096  16.707 -27.843  0.00  0.00    -0.520 OA
ENDROOT
BRANCH   1  13
ATOM     11  N   UNL     1      -3.943  17.331 -26.741  0.00  0.00    -0.720 N 
ATOM     12  H   UNL     1      -3.333  17.784 -26.136  0.00  0.00    +0.410 HD
ATOM     13  C   UNL     1      -3.930  17.627 -28.056  0.00  0.00    +0.510 C 
ATOM     14  O   UNL     1      -4.692  17.061 -28.811  0.00  0.00    -0.510 OA
BRANCH  11  15
ATOM     15  C   UNL     1      -4.877  16.328 -26.224  0.00  0.00    +0.250 C 
BRANCH  15  16
ATOM     16  C   UNL     1      -6.157  17.003 -25.804  0.00  0.00    +0.350 C 
ATOM     17  O   UNL     1      -7.220  16.473 -26.025  0.00  0.00    -0.410 OA
BRANCH  16  18
ATOM     18  C   UNL     1      -6.113  18.326 -25.118  0.00  0.00    +0.480 C 
ATOM     19  N   UNL     1      -6.396  18.413 -23.804  0.00  0.00    -0.680 N 
ATOM     20  H   UNL     1      -6.630  17.616 -23.304  0.00  0.00    +0.410 HD
ATOM     21  O   UNL     1      -5.819  19.324 -25.744  0.00  0.00    -0.490 OA
BRANCH  19  22
ATOM     22  C   UNL     1      -6.353  19.713 -23.129  0.00  0.00    +0.210 C 
ATOM     23  C   UNL     1      -7.660  20.500 -23.025  0.00  0.00    +0.020 C 
ATOM     24  C   UNL     1      -7.067  19.834 -21.782  0.00  0.00    +0.030 C 
ENDBRANCH  19  22
ENDBRANCH  16  18
ENDBRANCH  15  16
BRANCH  15  25
ATOM     25  C   UNL     1      -4.252  15.624 -25.018  0.00  0.00    +0.030 C 
BRANCH  25  27
ATOM     26  C   UNL     1      -2.227  14.419 -24.187  0.00  0.00    +0.000 C 
ATOM     27  C   UNL     1      -2.813  15.223 -25.350  0.00  0.00    +0.030 C 
ENDBRANCH  25  27
ENDBRANCH  15  25
ENDBRANCH  11  15
ENDBRANCH   1  13
BRANCH   9  28
ATOM     28  C   UNL     1      -0.214  16.348 -30.003  0.00  0.00    +0.260 C 
BRANCH  28  29
ATOM     29  C   UNL     1       1.108  17.110 -30.098  0.00  0.00    -0.070 C 
ATOM     30  C   UNL     1       1.202  17.804 -31.458  0.00  0.00    +0.040 C 
ATOM     31  C   UNL     1       2.274  16.130 -29.944  0.00  0.00    +0.030 C 
ATOM     32  C   UNL     1       1.174  18.158 -28.985  0.00  0.00    +0.030 C 
ENDBRANCH  28  29
BRANCH  28  33
ATOM     33  N   UNL     1      -0.861  16.326 -31.318  0.00  0.00    -0.710 N 
ATOM     34  H   UNL     1      -0.989  17.153 -31.809  0.00  0.00    +0.410 HD
ATOM     35  C   UNL     1      -1.276  15.158 -31.845  0.00  0.00    +0.520 C 
ATOM     36  O   UNL     1      -1.052  14.117 -31.265  0.00  0.00    -0.520 OA
BRANCH  35  37
ATOM     37  C   UNL     1      -2.021  15.144 -33.155  0.00  0.00    +0.240 C 
BRANCH  37  38
ATOM     38  C   UNL     1      -1.081  15.577 -34.281  0.00  0.00    -0.010 C 
ATOM     39  C   UNL     1      -1.154  14.565 -35.426  0.00  0.00    +0.020 C 
ATOM     40  C   UNL     1      -0.214  14.997 -36.552  0.00  0.00    +0.010 C 
ATOM     41  C   UNL     1      -0.634  16.376 -37.064  0.00  0.00    +0.000 C 
ATOM     42  C   UNL     1      -0.561  17.390 -35.920  0.00  0.00    +0.000 C 
ATOM     43  C   UNL     1      -1.500  16.957 -34.794  0.00  0.00    +0.040 C 
ENDBRANCH  37  38
BRANCH  37  44
ATOM     44  N   UNL     1      -3.155  16.068 -33.082  0.00  0.00    -0.690 N 
ATOM     45  H   UNL     1      -3.051  16.987 -33.377  0.00  0.00    +0.420 HD
ATOM     46  C   UNL     1      -4.342  15.643 -32.608  0.00  0.00    +0.580 C 
ATOM     47  O   UNL     1      -4.472  14.492 -32.239  0.00  0.00    -0.520 OA
BRANCH  46  48
ATOM     48  C   UNL     1      -5.489  16.579 -32.535  0.00  0.00    +0.030 A 
ATOM     49  C   UNL     1      -5.583  17.639 -33.435  0.00  0.00    +0.290 A 
ATOM     50  N   UNL     1      -6.608  18.470 -33.366  0.00  0.00    -0.440 NA
ATOM     51  C   UNL     1      -7.541  18.298 -32.446  0.00  0.00    +0.260 A 
ATOM     52  C   UNL     1      -7.449  17.242 -31.550  0.00  0.00    +0.230 A 
ATOM     53  N   UNL     1      -6.433  16.405 -31.615  0.00  0.00    -0.410 NA
ENDBRANCH  46  48
ENDBRANCH  37  44
ENDBRANCH  35  37
ENDBRANCH  28  33
ENDBRANCH   9  28
TORSDOF 14
ENDMDL
MODEL 3
REMARK VINA RESULT:      -6.9     21.960     26.821
REMARK  Name = ZINC000003992480
REMARK  18 active torsions:
REMARK  status: ('A' for Active; 'I' for Inactive)
REMARK    1  A    between atoms: C1_1  and  C2_2
REMARK    2  A    between atoms: C2_2  and  C3_3
REMARK    3  A    between atoms: C3_3  and  C4_4
REMARK    4  A    between atoms: C4_4  and  N6_6
REMARK    5  A    between atoms: C4_4  and  C48_48
REMARK    6  A    between atoms: C7_7  and  C9_9
REMARK    7  A    between atoms: C20_20  and  C22_22
REMARK    8  A    between atoms: C22_22  and  N24_24
REMARK    9  A    between atoms: C22_22  and  C44_44
REMARK   10  A    between atoms: C25_25  and  C27_27
REMARK   11  A    between atoms: C27_27  and  N29_29
REMARK   12  A    between atoms: C27_27  and  C38_38
REMARK   13  A    between atoms: C30_30  and  C32_32
REMARK   14  A    between atoms: C44_44  and  C45_45
REMARK   15  A    between atoms: C44_44  and  C46_46
REMARK   16  A    between atoms: C44_44  and  C47_47
REMARK   17  A    between atoms: C48_48  and  C50_50
REMARK   18  A    between atoms: N52_52  and  C53_53
REMARK                            x       y       z     vdW  Elec       q    Type
REMARK                         _______ _______ _______ _____ _____    ______ ____
ROOT
ATOM      1  C   UNL     1      -1.931  -5.484 -37.075  0.00  0.00    +0.230 C 
ATOM      2  C   UNL     1      -1.837  -6.223 -38.416  0.00  0.00    +0.010 C 
ATOM      3  C   UNL     1      -1.196  -5.297 -39.475  0.00  0.00    +0.030 C 
ATOM      4  C   UNL     1      -0.478  -6.296 -40.414  0.00  0.00    +0.020 C 
ATOM      5  C   UNL     1       0.085  -7.373 -39.464  0.00  0.00    +0.020 C 
ATOM      6  C   UNL     1      -0.781  -7.337 -38.181  0.00  0.00    +0.000 C 
ATOM      7  C   UNL     1       0.075  -6.788 -37.023  0.00  0.00    +0.250 C 
ATOM      8  N   UNL     1      -0.774  -5.868 -36.262  0.00  0.00    -0.590 N 
ATOM      9  C   UNL     1      -0.534  -5.445 -35.004  0.00  0.00    +0.540 C 
ATOM     10  O   UNL     1      -1.247  -4.604 -34.501  0.00  0.00    -0.520 OA
ENDROOT
BRANCH   1  13
ATOM     11  N   UNL     1      -3.937  -4.938 -35.734  0.00  0.00    -0.720 N 
ATOM     12  H   UNL     1      -3.647  -4.012 -35.736  0.00  0.00    +0.410 HD
ATOM     13  C   UNL     1      -3.203  -5.874 -36.368  0.00  0.00    +0.510 C 
ATOM     14  O   UNL     1      -3.566  -7.031 -36.367  0.00  0.00    -0.510 OA
BRANCH  11  15
ATOM     15  C   UNL     1      -5.174  -5.317 -35.046  0.00  0.00    +0.250 C 
BRANCH  15  16
ATOM     16  C   UNL     1      -6.358  -4.784 -35.810  0.00  0.00    +0.350 C 
ATOM     17  O   UNL     1      -6.808  -3.695 -35.544  0.00  0.00    -0.410 OA
BRANCH  16  18
ATOM     18  C   UNL     1      -6.975  -5.601 -36.894  0.00  0.00    +0.480 C 
ATOM     19  N   UNL     1      -6.238  -5.977 -37.957  0.00  0.00    -0.680 N 
ATOM     20  H   UNL     1      -5.306  -5.717 -38.018  0.00  0.00    +0.410 HD
ATOM     21  O   UNL     1      -8.142  -5.928 -36.818  0.00  0.00    -0.490 OA
BRANCH  19  22
ATOM     22  C   UNL     1      -6.844  -6.780 -39.022  0.00  0.00    +0.210 C 
ATOM     23  C   UNL     1      -6.661  -6.298 -40.462  0.00  0.00    +0.020 C 
ATOM     24  C   UNL     1      -5.902  -7.530 -39.965  0.00  0.00    +0.030 C 
ENDBRANCH  19  22
ENDBRANCH  16  18
ENDBRANCH  15  16
BRANCH  15  25
ATOM     25  C   UNL     1      -5.171  -4.731 -33.634  0.00  0.00    +0.030 C 
BRANCH  25  27
ATOM     26  C   UNL     1      -5.170  -7.168 -33.080  0.00  0.00    +0.000 C 
ATOM     27  C   UNL     1      -4.676  -5.788 -32.643  0.00  0.00    +0.030 C 
ENDBRANCH  25  27
ENDBRANCH  15  25
ENDBRANCH  11  15
ENDBRANCH   1  13
BRANCH   9  28
ATOM     28  C   UNL     1       0.620  -6.020 -34.224  0.00  0.00    +0.260 C 
BRANCH  28  29
ATOM     29  C   UNL     1       0.085  -6.905 -33.098  0.00  0.00    -0.070 C 
ATOM     30  C   UNL     1      -0.072  -6.071 -31.824  0.00  0.00    +0.040 C 
ATOM     31  C   UNL     1       1.065  -8.051 -32.839  0.00  0.00    +0.030 C 
ATOM     32  C   UNL     1      -1.275  -7.479 -33.502  0.00  0.00    +0.030 C 
ENDBRANCH  28  29
BRANCH  28  33
ATOM     33  N   UNL     1       1.415  -4.929 -33.653  0.00  0.00    -0.710 N 
ATOM     34  H   UNL     1       1.165  -4.543 -32.799  0.00  0.00    +0.410 HD
ATOM     35  C   UNL     1       2.492  -4.463 -34.315  0.00  0.00    +0.520 C 
ATOM     36  O   UNL     1       2.847  -4.993 -35.346  0.00  0.00    -0.520 OA
BRANCH  35  37
ATOM     37  C   UNL     1       3.256  -3.283 -33.773  0.00  0.00    +0.240 C 
BRANCH  37  38
ATOM     38  C   UNL     1       4.758  -3.547 -33.897  0.00  0.00    -0.010 C 
ATOM     39  C   UNL     1       5.519  -2.222 -33.804  0.00  0.00    +0.020 C 
ATOM     40  C   UNL     1       7.020  -2.485 -33.928  0.00  0.00    +0.010 C 
ATOM     41  C   UNL     1       7.470  -3.411 -32.796  0.00  0.00    +0.000 C 
ATOM     42  C   UNL     1       6.710  -4.737 -32.889  0.00  0.00    +0.000 C 
ATOM     43  C   UNL     1       5.209  -4.473 -32.765  0.00  0.00    +0.040 C 
ENDBRANCH  37  38
BRANCH  37  44
ATOM     44  N   UNL     1       2.910  -3.080 -32.365  0.00  0.00    -0.690 N 
ATOM     45  H   UNL     1       3.228  -3.705 -31.693  0.00  0.00    +0.420 HD
ATOM     46  C   UNL     1       2.152  -2.028 -32.001  0.00  0.00    +0.580 C 
ATOM     47  O   UNL     1       1.755  -1.246 -32.842  0.00  0.00    -0.520 OA
BRANCH  46  48
ATOM     48  C   UNL     1       1.803  -1.823 -30.575  0.00  0.00    +0.030 A 
ATOM     49  C   UNL     1       2.713  -2.166 -29.577  0.00  0.00    +0.290 A 
ATOM     50  N   UNL     1       2.397  -1.982 -28.307  0.00  0.00    -0.440 NA
ATOM     51  C   UNL     1       1.220  -1.475 -27.985  0.00  0.00    +0.260 A 
ATOM     52  C   UNL     1       0.313  -1.133 -28.977  0.00  0.00    +0.230 A 
ATOM     53  N   UNL     1       0.622  -1.308 -30.246  0.00  0.00    -0.410 NA
ENDBRANCH  46  48
ENDBRANCH  37  44
ENDBRANCH  35  37
ENDBRANCH  28  33
ENDBRANCH   9  28
TORSDOF 14
ENDMDL
MODEL 4
REMARK VINA RESULT:      -6.9      5.797     12.707
REMARK  Name = ZINC000003992480
REMARK  18 active torsions:
REMARK  status: ('A' for Active; 'I' for Inactive)
REMARK    1  A    between atoms: C1_1  and  C2_2
REMARK    2  A    between atoms: C2_2  and  C3_3
REMARK    3  A    between atoms: C3_3  and  C4_4
REMARK    4  A    between atoms: C4_4  and  N6_6
REMARK    5  A    between atoms: C4_4  and  C48_48
REMARK    6  A    between atoms: C7_7  and  C9_9
REMARK    7  A    between atoms: C20_20  and  C22_22
REMARK    8  A    between atoms: C22_22  and  N24_24
REMARK    9  A    between atoms: C22_22  and  C44_44
REMARK   10  A    between atoms: C25_25  and  C27_27
REMARK   11  A    between atoms: C27_27  and  N29_29
REMARK   12  A    between atoms: C27_27  and  C38_38
REMARK   13  A    between atoms: C30_30  and  C32_32
REMARK   14  A    between atoms: C44_44  and  C45_45
REMARK   15  A    between atoms: C44_44  and  C46_46
REMARK   16  A    between atoms: C44_44  and  C47_47
REMARK   17  A    between atoms: C48_48  and  C50_50
REMARK   18  A    between atoms: N52_52  and  C53_53
REMARK                            x       y       z     vdW  Elec       q    Type
REMARK                         _______ _______ _______ _____ _____    ______ ____
ROOT
ATOM      1  C   UNL     1      -2.079  15.553 -35.420  0.00  0.00    +0.230 C 
ATOM      2  C   UNL     1      -1.966  15.944 -36.899  0.00  0.00    +0.010 C 
ATOM      3  C   UNL     1      -3.334  15.749 -37.593  0.00  0.00    +0.030 C 
ATOM      4  C   UNL     1      -3.313  16.828 -38.702  0.00  0.00    +0.020 C 
ATOM      5  C   UNL     1      -2.620  18.037 -38.042  0.00  0.00    +0.020 C 
ATOM      6  C   UNL     1      -1.751  17.482 -36.886  0.00  0.00    +0.000 C 
ATOM      7  C   UNL     1      -2.371  17.925 -35.546  0.00  0.00    +0.250 C 
ATOM      8  N   UNL     1      -2.301  16.775 -34.642  0.00  0.00    -0.590 N 
ATOM      9  C   UNL     1      -2.414  16.830 -33.300  0.00  0.00    +0.540 C 
ATOM     10  O   UNL     1      -2.443  15.807 -32.650  0.00  0.00    -0.520 OA
ENDROOT
BRANCH   1  13
ATOM     11  N   UNL     1      -0.851  13.776 -34.213  0.00  0.00    -0.720 N 
ATOM     12  H   UNL     1      -1.709  13.402 -33.956  0.00  0.00    +0.410 HD
ATOM     13  C   UNL     1      -0.802  14.888 -34.972  0.00  0.00    +0.510 C 
ATOM     14  O   UNL     1       0.270  15.356 -35.293  0.00  0.00    -0.510 OA
BRANCH  11  15
ATOM     15  C   UNL     1       0.389  13.130 -33.776  0.00  0.00    +0.250 C 
BRANCH  15  16
ATOM     16  C   UNL     1       0.318  11.655 -34.073  0.00  0.00    +0.350 C 
ATOM     17  O   UNL     1       0.503  10.851 -33.190  0.00  0.00    -0.410 OA
BRANCH  16  18
ATOM     18  C   UNL     1       0.021  11.185 -35.457  0.00  0.00    +0.480 C 
ATOM     19  N   UNL     1       0.016   9.867 -35.734  0.00  0.00    -0.680 N 
ATOM     20  H   UNL     1       0.206   9.223 -35.035  0.00  0.00    +0.410 HD
ATOM     21  O   UNL     1      -0.218  11.992 -36.332  0.00  0.00    -0.490 OA
BRANCH  19  22
ATOM     22  C   UNL     1      -0.276   9.406 -37.094  0.00  0.00    +0.210 C 
ATOM     23  C   UNL     1       0.785   8.557 -37.796  0.00  0.00    +0.020 C 
ATOM     24  C   UNL     1      -0.508   7.907 -37.298  0.00  0.00    +0.030 C 
ENDBRANCH  19  22
ENDBRANCH  16  18
ENDBRANCH  15  16
BRANCH  15  25
ATOM     25  C   UNL     1       0.571  13.341 -32.273  0.00  0.00    +0.030 C 
BRANCH  25  27
ATOM     26  C   UNL     1       2.881  13.925 -33.028  0.00  0.00    +0.000 C 
ATOM     27  C   UNL     1       1.771  14.258 -32.027  0.00  0.00    +0.030 C 
ENDBRANCH  25  27
ENDBRANCH  15  25
ENDBRANCH  11  15
ENDBRANCH   1  13
BRANCH   9  28
ATOM     28  C   UNL     1      -2.504  18.166 -32.606  0.00  0.00    +0.260 C 
BRANCH  28  29
ATOM     29  C   UNL     1      -1.261  18.377 -31.742  0.00  0.00    -0.070 C 
ATOM     30  C   UNL     1      -1.529  17.861 -30.327  0.00  0.00    +0.040 C 
ATOM     31  C   UNL     1      -0.926  19.869 -31.685  0.00  0.00    +0.030 C 
ATOM     32  C   UNL     1      -0.082  17.613 -32.348  0.00  0.00    +0.030 C 
ENDBRANCH  28  29
BRANCH  28  33
ATOM     33  N   UNL     1      -3.700  18.196 -31.759  0.00  0.00    -0.710 N 
ATOM     34  H   UNL     1      -3.831  17.514 -31.082  0.00  0.00    +0.410 HD
ATOM     35  C   UNL     1      -4.616  19.171 -31.921  0.00  0.00    +0.520 C 
ATOM     36  O   UNL     1      -4.417  20.063 -32.717  0.00  0.00    -0.520 OA
BRANCH  35  37
ATOM     37  C   UNL     1      -5.887  19.152 -31.113  0.00  0.00    +0.240 C 
BRANCH  37  38
ATOM     38  C   UNL     1      -5.704  18.245 -29.894  0.00  0.00    -0.010 C 
ATOM     39  C   UNL     1      -6.162  18.984 -28.634  0.00  0.00    +0.020 C 
ATOM     40  C   UNL     1      -5.979  18.078 -27.416  0.00  0.00    +0.010 C 
ATOM     41  C   UNL     1      -6.814  16.809 -27.594  0.00  0.00    +0.000 C 
ATOM     42  C   UNL     1      -6.356  16.069 -28.853  0.00  0.00    +0.000 C 
ATOM     43  C   UNL     1      -6.539  16.975 -30.072  0.00  0.00    +0.040 C 
ENDBRANCH  37  38
BRANCH  37  44
ATOM     44  N   UNL     1      -6.984  18.643 -31.939  0.00  0.00    -0.690 N 
ATOM     45  H   UNL     1      -7.012  17.704 -32.183  0.00  0.00    +0.420 HD
ATOM     46  C   UNL     1      -7.955  19.477 -32.359  0.00  0.00    +0.580 C 
ATOM     47  O   UNL     1      -7.921  20.653 -32.052  0.00  0.00    -0.520 OA
BRANCH  46  48
ATOM     48  C   UNL     1      -9.065  18.962 -33.195  0.00  0.00    +0.030 A 
ATOM     49  C   UNL     1     -10.388  19.199 -32.823  0.00  0.00    +0.290 A 
ATOM     50  N   UNL     1     -11.374  18.738 -33.572  0.00  0.00    -0.440 NA
ATOM     51  C   UNL     1     -11.107  18.052 -34.670  0.00  0.00    +0.260 A 
ATOM     52  C   UNL     1      -9.791  17.815 -35.041  0.00  0.00    +0.230 A 
ATOM     53  N   UNL     1      -8.802  18.276 -34.303  0.00  0.00    -0.410 NA
ENDBRANCH  46  48
ENDBRANCH  37  44
ENDBRANCH  35  37
ENDBRANCH  28  33
ENDBRANCH   9  28
TORSDOF 14
ENDMDL
MODEL 5
REMARK VINA RESULT:      -6.9      4.116      6.969
REMARK  Name = ZINC000003992480
REMARK  18 active torsions:
REMARK  status: ('A' for Active; 'I' for Inactive)
REMARK    1  A    between atoms: C1_1  and  C2_2
REMARK    2  A    between atoms: C2_2  and  C3_3
REMARK    3  A    between atoms: C3_3  and  C4_4
REMARK    4  A    between atoms: C4_4  and  N6_6
REMARK    5  A    between atoms: C4_4  and  C48_48
REMARK    6  A    between atoms: C7_7  and  C9_9
REMARK    7  A    between atoms: C20_20  and  C22_22
REMARK    8  A    between atoms: C22_22  and  N24_24
REMARK    9  A    between atoms: C22_22  and  C44_44
REMARK   10  A    between atoms: C25_25  and  C27_27
REMARK   11  A    between atoms: C27_27  and  N29_29
REMARK   12  A    between atoms: C27_27  and  C38_38
REMARK   13  A    between atoms: C30_30  and  C32_32
REMARK   14  A    between atoms: C44_44  and  C45_45
REMARK   15  A    between atoms: C44_44  and  C46_46
REMARK   16  A    between atoms: C44_44  and  C47_47
REMARK   17  A    between atoms: C48_48  and  C50_50
REMARK   18  A    between atoms: N52_52  and  C53_53
REMARK                            x       y       z     vdW  Elec       q    Type
REMARK                         _______ _______ _______ _____ _____    ______ ____
ROOT
ATOM      1  C   UNL     1      -1.816  17.996 -29.309  0.00  0.00    +0.230 C 
ATOM      2  C   UNL     1      -0.605  18.885 -28.995  0.00  0.00    +0.010 C 
ATOM      3  C   UNL     1       0.659  18.006 -28.852  0.00  0.00    +0.030 C 
ATOM      4  C   UNL     1       1.790  18.954 -29.318  0.00  0.00    +0.020 C 
ATOM      5  C   UNL     1       1.169  19.738 -30.492  0.00  0.00    +0.020 C 
ATOM      6  C   UNL     1      -0.367  19.703 -30.293  0.00  0.00    +0.000 C 
ATOM      7  C   UNL     1      -0.987  18.823 -31.397  0.00  0.00    +0.250 C 
ATOM      8  N   UNL     1      -2.022  18.004 -30.760  0.00  0.00    -0.590 N 
ATOM      9  C   UNL     1      -3.017  17.364 -31.407  0.00  0.00    +0.540 C 
ATOM     10  O   UNL     1      -3.763  16.630 -30.796  0.00  0.00    -0.520 OA
ENDROOT
BRANCH   1  13
ATOM     11  N   UNL     1      -3.950  17.699 -28.093  0.00  0.00    -0.720 N 
ATOM     12  H   UNL     1      -3.818  16.740 -28.160  0.00  0.00    +0.410 HD
ATOM     13  C   UNL     1      -3.039  18.543 -28.618  0.00  0.00    +0.510 C 
ATOM     14  O   UNL     1      -3.205  19.741 -28.536  0.00  0.00    -0.510 OA
BRANCH  11  15
ATOM     15  C   UNL     1      -5.139  18.230 -27.422  0.00  0.00    +0.250 C 
BRANCH  15  16
ATOM     16  C   UNL     1      -5.400  17.442 -26.165  0.00  0.00    +0.350 C 
ATOM     17  O   UNL     1      -6.125  17.891 -25.309  0.00  0.00    -0.410 OA
BRANCH  16  18
ATOM     18  C   UNL     1      -4.760  16.109 -25.974  0.00  0.00    +0.480 C 
ATOM     19  N   UNL     1      -3.693  15.983 -25.161  0.00  0.00    -0.680 N 
ATOM     20  H   UNL     1      -3.340  16.759 -24.700  0.00  0.00    +0.410 HD
ATOM     21  O   UNL     1      -5.203  15.136 -26.550  0.00  0.00    -0.490 OA
BRANCH  19  22
ATOM     22  C   UNL     1      -3.065  14.672 -24.974  0.00  0.00    +0.210 C 
ATOM     23  C   UNL     1      -1.548  14.585 -25.142  0.00  0.00    +0.020 C 
ATOM     24  C   UNL     1      -2.169  14.487 -23.747  0.00  0.00    +0.030 C 
ENDBRANCH  19  22
ENDBRANCH  16  18
ENDBRANCH  15  16
BRANCH  15  25
ATOM     25  C   UNL     1      -6.345  18.114 -28.356  0.00  0.00    +0.030 C 
BRANCH  25  27
ATOM     26  C   UNL     1      -6.484  20.516 -27.680  0.00  0.00    +0.000 C 
ATOM     27  C   UNL     1      -6.788  19.512 -28.795  0.00  0.00    +0.030 C 
ENDBRANCH  25  27
ENDBRANCH  15  25
ENDBRANCH  11  15
ENDBRANCH   1  13
BRANCH   9  28
ATOM     28  C   UNL     1      -3.200  17.562 -32.890  0.00  0.00    +0.260 C 
BRANCH  28  29
ATOM     29  C   UNL     1      -4.546  18.239 -33.151  0.00  0.00    -0.070 C 
ATOM     30  C   UNL     1      -5.666  17.201 -33.066  0.00  0.00    +0.040 C 
ATOM     31  C   UNL     1      -4.538  18.868 -34.547  0.00  0.00    +0.030 C 
ATOM     32  C   UNL     1      -4.781  19.330 -32.103  0.00  0.00    +0.030 C 
ENDBRANCH  28  29
BRANCH  28  33
ATOM     33  N   UNL     1      -3.170  16.260 -33.563  0.00  0.00    -0.710 N 
ATOM     34  H   UNL     1      -3.970  15.714 -33.598  0.00  0.00    +0.410 HD
ATOM     35  C   UNL     1      -2.030  15.823 -34.133  0.00  0.00    +0.520 C 
ATOM     36  O   UNL     1      -1.049  16.537 -34.152  0.00  0.00    -0.520 OA
BRANCH  35  37
ATOM     37  C   UNL     1      -1.972  14.448 -34.746  0.00  0.00    +0.240 C 
BRANCH  37  38
ATOM     38  C   UNL     1      -1.132  13.529 -33.859  0.00  0.00    -0.010 C 
ATOM     39  C   UNL     1       0.351  13.858 -34.041  0.00  0.00    +0.020 C 
ATOM     40  C   UNL     1       1.192  12.938 -33.155  0.00  0.00    +0.010 C 
ATOM     41  C   UNL     1       0.801  13.145 -31.690  0.00  0.00    +0.000 C 
ATOM     42  C   UNL     1      -0.682  12.815 -31.507  0.00  0.00    +0.000 C 
ATOM     43  C   UNL     1      -1.523  13.735 -32.394  0.00  0.00    +0.040 C 
ENDBRANCH  37  38
BRANCH  37  44
ATOM     44  N   UNL     1      -1.366  14.531 -36.077  0.00  0.00    -0.690 N 
ATOM     45  H   UNL     1      -0.647  15.161 -36.243  0.00  0.00    +0.420 HD
ATOM     46  C   UNL     1      -1.806  13.733 -37.069  0.00  0.00    +0.580 C 
ATOM     47  O   UNL     1      -2.707  12.944 -36.861  0.00  0.00    -0.520 OA
BRANCH  46  48
ATOM     48  C   UNL     1      -1.192  13.817 -38.416  0.00  0.00    +0.030 A 
ATOM     49  C   UNL     1      -1.496  12.860 -39.383  0.00  0.00    +0.290 A 
ATOM     50  N   UNL     1      -0.946  12.939 -40.581  0.00  0.00    -0.440 NA
ATOM     51  C   UNL     1      -0.109  13.923 -40.863  0.00  0.00    +0.260 A 
ATOM     52  C   UNL     1       0.195  14.876 -39.901  0.00  0.00    +0.230 A 
ATOM     53  N   UNL     1      -0.354  14.808 -38.705  0.00  0.00    -0.410 NA
ENDBRANCH  46  48
ENDBRANCH  37  44
ENDBRANCH  35  37
ENDBRANCH  28  33
ENDBRANCH   9  28
TORSDOF 14
ENDMDL
MODEL 6
REMARK VINA RESULT:      -6.8      3.250     10.648
REMARK  Name = ZINC000003992480
REMARK  18 active torsions:
REMARK  status: ('A' for Active; 'I' for Inactive)
REMARK    1  A    between atoms: C1_1  and  C2_2
REMARK    2  A    between atoms: C2_2  and  C3_3
REMARK    3  A    between atoms: C3_3  and  C4_4
REMARK    4  A    between atoms: C4_4  and  N6_6
REMARK    5  A    between atoms: C4_4  and  C48_48
REMARK    6  A    between atoms: C7_7  and  C9_9
REMARK    7  A    between atoms: C20_20  and  C22_22
REMARK    8  A    between atoms: C22_22  and  N24_24
REMARK    9  A    between atoms: C22_22  and  C44_44
REMARK   10  A    between atoms: C25_25  and  C27_27
REMARK   11  A    between atoms: C27_27  and  N29_29
REMARK   12  A    between atoms: C27_27  and  C38_38
REMARK   13  A    between atoms: C30_30  and  C32_32
REMARK   14  A    between atoms: C44_44  and  C45_45
REMARK   15  A    between atoms: C44_44  and  C46_46
REMARK   16  A    between atoms: C44_44  and  C47_47
REMARK   17  A    between atoms: C48_48  and  C50_50
REMARK   18  A    between atoms: N52_52  and  C53_53
REMARK                            x       y       z     vdW  Elec       q    Type
REMARK                         _______ _______ _______ _____ _____    ______ ____
ROOT
ATOM      1  C   UNL     1      -2.806  15.897 -32.040  0.00  0.00    +0.230 C 
ATOM      2  C   UNL     1      -3.992  16.070 -32.997  0.00  0.00    +0.010 C 
ATOM      3  C   UNL     1      -5.294  15.618 -32.296  0.00  0.00    +0.030 C 
ATOM      4  C   UNL     1      -6.369  16.512 -32.961  0.00  0.00    +0.020 C 
ATOM      5  C   UNL     1      -5.674  17.877 -33.133  0.00  0.00    +0.020 C 
ATOM      6  C   UNL     1      -4.149  17.606 -33.161  0.00  0.00    +0.000 C 
ATOM      7  C   UNL     1      -3.524  18.175 -31.872  0.00  0.00    +0.250 C 
ATOM      8  N   UNL     1      -2.546  17.190 -31.400  0.00  0.00    -0.590 N 
ATOM      9  C   UNL     1      -1.554  17.436 -30.522  0.00  0.00    +0.540 C 
ATOM     10  O   UNL     1      -0.860  16.527 -30.120  0.00  0.00    -0.520 OA
ENDROOT
BRANCH   1  13
ATOM     11  N   UNL     1      -0.880  14.388 -32.400  0.00  0.00    -0.720 N 
ATOM     12  H   UNL     1      -1.153  13.901 -31.607  0.00  0.00    +0.410 HD
ATOM     13  C   UNL     1      -1.590  15.457 -32.812  0.00  0.00    +0.510 C 
ATOM     14  O   UNL     1      -1.248  16.065 -33.804  0.00  0.00    -0.510 OA
BRANCH  11  15
ATOM     15  C   UNL     1       0.303  13.960 -33.151  0.00  0.00    +0.250 C 
BRANCH  15  16
ATOM     16  C   UNL     1      -0.025  12.720 -33.942  0.00  0.00    +0.350 C 
ATOM     17  O   UNL     1      -0.008  11.638 -33.405  0.00  0.00    -0.410 OA
BRANCH  16  18
ATOM     18  C   UNL     1      -0.371  12.828 -35.388  0.00  0.00    +0.480 C 
ATOM     19  N   UNL     1      -0.740  14.016 -35.905  0.00  0.00    -0.680 N 
ATOM     20  H   UNL     1      -0.782  14.801 -35.338  0.00  0.00    +0.410 HD
ATOM     21  O   UNL     1      -0.318  11.846 -36.100  0.00  0.00    -0.490 OA
BRANCH  19  22
ATOM     22  C   UNL     1      -1.080  14.122 -37.327  0.00  0.00    +0.210 C 
ATOM     23  C   UNL     1      -2.204  15.084 -37.715  0.00  0.00    +0.020 C 
ATOM     24  C   UNL     1      -0.750  15.437 -38.036  0.00  0.00    +0.030 C 
ENDBRANCH  19  22
ENDBRANCH  16  18
ENDBRANCH  15  16
BRANCH  15  25
ATOM     25  C   UNL     1       1.442  13.657 -32.177  0.00  0.00    +0.030 C 
BRANCH  25  27
ATOM     26  C   UNL     1       1.929  14.805 -30.011  0.00  0.00    +0.000 C 
ATOM     27  C   UNL     1       1.924  14.959 -31.534  0.00  0.00    +0.030 C 
ENDBRANCH  25  27
ENDBRANCH  15  25
ENDBRANCH  11  15
ENDBRANCH   1  13
BRANCH   9  28
ATOM     28  C   UNL     1      -1.307  18.843 -30.039  0.00  0.00    +0.260 C 
BRANCH  28  29
ATOM     29  C   UNL     1       0.199  19.093 -29.946  0.00  0.00    -0.070 C 
ATOM     30  C   UNL     1       0.876  18.622 -31.234  0.00  0.00    +0.040 C 
ATOM     31  C   UNL     1       0.772  18.320 -28.756  0.00  0.00    +0.030 C 
ATOM     32  C   UNL     1       0.457  20.590 -29.753  0.00  0.00    +0.030 C 
ENDBRANCH  28  29
BRANCH  28  33
ATOM     33  N   UNL     1      -1.915  19.019 -28.718  0.00  0.00    -0.710 N 
ATOM     34  H   UNL     1      -1.618  18.476 -27.971  0.00  0.00    +0.410 HD
ATOM     35  C   UNL     1      -2.885  19.937 -28.539  0.00  0.00    +0.520 C 
ATOM     36  O   UNL     1      -3.206  20.665 -29.454  0.00  0.00    -0.520 OA
BRANCH  35  37
ATOM     37  C   UNL     1      -3.573  20.056 -27.204  0.00  0.00    +0.240 C 
BRANCH  37  38
ATOM     38  C   UNL     1      -2.543  20.403 -26.128  0.00  0.00    -0.010 C 
ATOM     39  C   UNL     1      -1.917  21.764 -26.439  0.00  0.00    +0.020 C 
ATOM     40  C   UNL     1      -0.886  22.111 -25.364  0.00  0.00    +0.010 C 
ATOM     41  C   UNL     1      -1.574  22.167 -23.998  0.00  0.00    +0.000 C 
ATOM     42  C   UNL     1      -2.200  20.805 -23.686  0.00  0.00    +0.000 C 
ATOM     43  C   UNL     1      -3.230  20.458 -24.762  0.00  0.00    +0.040 C 
ENDBRANCH  37  38
BRANCH  37  44
ATOM     44  N   UNL     1      -4.219  18.785 -26.871  0.00  0.00    -0.690 N 
ATOM     45  H   UNL     1      -3.713  18.088 -26.422  0.00  0.00    +0.420 HD
ATOM     46  C   UNL     1      -5.512  18.582 -27.186  0.00  0.00    +0.580 C 
ATOM     47  O   UNL     1      -6.145  19.454 -27.747  0.00  0.00    -0.520 OA
BRANCH  46  48
ATOM     48  C   UNL     1      -6.165  17.295 -26.848  0.00  0.00    +0.030 A 
ATOM     49  C   UNL     1      -5.431  16.110 -26.881  0.00  0.00    +0.290 A 
ATOM     50  N   UNL     1      -6.017  14.965 -26.579  0.00  0.00    -0.440 NA
ATOM     51  C   UNL     1      -7.296  14.943 -26.246  0.00  0.00    +0.260 A 
ATOM     52  C   UNL     1      -8.028  16.121 -26.212  0.00  0.00    +0.230 A 
ATOM     53  N   UNL     1      -7.450  17.268 -26.506  0.00  0.00    -0.410 NA
ENDBRANCH  46  48
ENDBRANCH  37  44
ENDBRANCH  35  37
ENDBRANCH  28  33
ENDBRANCH   9  28
TORSDOF 14
ENDMDL
MODEL 7
REMARK VINA RESULT:      -6.8      3.162      7.212
REMARK  Name = ZINC000003992480
REMARK  18 active torsions:
REMARK  status: ('A' for Active; 'I' for Inactive)
REMARK    1  A    between atoms: C1_1  and  C2_2
REMARK    2  A    between atoms: C2_2  and  C3_3
REMARK    3  A    between atoms: C3_3  and  C4_4
REMARK    4  A    between atoms: C4_4  and  N6_6
REMARK    5  A    between atoms: C4_4  and  C48_48
REMARK    6  A    between atoms: C7_7  and  C9_9
REMARK    7  A    between atoms: C20_20  and  C22_22
REMARK    8  A    between atoms: C22_22  and  N24_24
REMARK    9  A    between atoms: C22_22  and  C44_44
REMARK   10  A    between atoms: C25_25  and  C27_27
REMARK   11  A    between atoms: C27_27  and  N29_29
REMARK   12  A    between atoms: C27_27  and  C38_38
REMARK   13  A    between atoms: C30_30  and  C32_32
REMARK   14  A    between atoms: C44_44  and  C45_45
REMARK   15  A    between atoms: C44_44  and  C46_46
REMARK   16  A    between atoms: C44_44  and  C47_47
REMARK   17  A    between atoms: C48_48  and  C50_50
REMARK   18  A    between atoms: N52_52  and  C53_53
REMARK                            x       y       z     vdW  Elec       q    Type
REMARK                         _______ _______ _______ _____ _____    ______ ____
ROOT
ATOM      1  C   UNL     1      -0.127  17.505 -28.974  0.00  0.00    +0.230 C 
ATOM      2  C   UNL     1       0.123  18.871 -29.628  0.00  0.00    +0.010 C 
ATOM      3  C   UNL     1       1.581  19.312 -29.363  0.00  0.00    +0.030 C 
ATOM      4  C   UNL     1       1.911  20.168 -30.609  0.00  0.00    +0.020 C 
ATOM      5  C   UNL     1       1.221  19.427 -31.772  0.00  0.00    +0.020 C 
ATOM      6  C   UNL     1       0.070  18.594 -31.155  0.00  0.00    +0.000 C 
ATOM      7  C   UNL     1       0.429  17.099 -31.267  0.00  0.00    +0.250 C 
ATOM      8  N   UNL     1       0.047  16.472 -29.999  0.00  0.00    -0.590 N 
ATOM      9  C   UNL     1      -0.127  15.149 -29.805  0.00  0.00    +0.540 C 
ATOM     10  O   UNL     1      -0.345  14.723 -28.691  0.00  0.00    -0.520 OA
ENDROOT
BRANCH   1  13
ATOM     11  N   UNL     1      -1.742  17.151 -27.134  0.00  0.00    -0.720 N 
ATOM     12  H   UNL     1      -0.989  16.970 -26.550  0.00  0.00    +0.410 HD
ATOM     13  C   UNL     1      -1.532  17.452 -28.431  0.00  0.00    +0.510 C 
ATOM     14  O   UNL     1      -2.473  17.679 -29.161  0.00  0.00    -0.510 OA
BRANCH  11  15
ATOM     15  C   UNL     1      -3.107  17.099 -26.605  0.00  0.00    +0.250 C 
BRANCH  15  16
ATOM     16  C   UNL     1      -3.409  18.377 -25.867  0.00  0.00    +0.350 C 
ATOM     17  O   UNL     1      -2.506  19.061 -25.447  0.00  0.00    -0.410 OA
BRANCH  16  18
ATOM     18  C   UNL     1      -4.824  18.798 -25.653  0.00  0.00    +0.480 C 
ATOM     19  N   UNL     1      -5.193  19.347 -24.479  0.00  0.00    -0.680 N 
ATOM     20  H   UNL     1      -4.540  19.467 -23.772  0.00  0.00    +0.410 HD
ATOM     21  O   UNL     1      -5.642  18.649 -26.537  0.00  0.00    -0.490 OA
BRANCH  19  22
ATOM     22  C   UNL     1      -6.583  19.761 -24.268  0.00  0.00    +0.210 C 
ATOM     23  C   UNL     1      -7.119  19.735 -22.836  0.00  0.00    +0.020 C 
ATOM     24  C   UNL     1      -6.823  21.072 -23.518  0.00  0.00    +0.030 C 
ENDBRANCH  19  22
ENDBRANCH  16  18
ENDBRANCH  15  16
BRANCH  15  25
ATOM     25  C   UNL     1      -3.238  15.913 -25.649  0.00  0.00    +0.030 C 
BRANCH  25  27
ATOM     26  C   UNL     1      -1.995  14.084 -24.486  0.00  0.00    +0.000 C 
ATOM     27  C   UNL     1      -1.881  15.221 -25.505  0.00  0.00    +0.030 C 
ENDBRANCH  25  27
ENDBRANCH  15  25
ENDBRANCH  11  15
ENDBRANCH   1  13
BRANCH   9  28
ATOM     28  C   UNL     1      -0.051  14.200 -30.974  0.00  0.00    +0.260 C 
BRANCH  28  29
ATOM     29  C   UNL     1       1.408  14.023 -31.393  0.00  0.00    -0.070 C 
ATOM     30  C   UNL     1       2.325  14.570 -30.297  0.00  0.00    +0.040 C 
ATOM     31  C   UNL     1       1.662  14.784 -32.696  0.00  0.00    +0.030 C 
ATOM     32  C   UNL     1       1.701  12.536 -31.607  0.00  0.00    +0.030 C 
ENDBRANCH  28  29
BRANCH  28  33
ATOM     33  N   UNL     1      -0.818  14.748 -32.097  0.00  0.00    -0.710 N 
ATOM     34  H   UNL     1      -0.663  15.658 -32.392  0.00  0.00    +0.410 HD
ATOM     35  C   UNL     1      -1.739  13.985 -32.719  0.00  0.00    +0.520 C 
ATOM     36  O   UNL     1      -1.882  12.824 -32.398  0.00  0.00    -0.520 OA
BRANCH  35  37
ATOM     37  C   UNL     1      -2.591  14.574 -33.813  0.00  0.00    +0.240 C 
BRANCH  37  38
ATOM     38  C   UNL     1      -1.695  15.045 -34.960  0.00  0.00    -0.010 C 
ATOM     39  C   UNL     1      -2.173  14.419 -36.272  0.00  0.00    +0.020 C 
ATOM     40  C   UNL     1      -1.277  14.889 -37.418  0.00  0.00    +0.010 C 
ATOM     41  C   UNL     1      -1.347  16.414 -37.527  0.00  0.00    +0.000 C 
ATOM     42  C   UNL     1      -0.869  17.041 -36.215  0.00  0.00    +0.000 C 
ATOM     43  C   UNL     1      -1.764  16.570 -35.069  0.00  0.00    +0.040 C 
ENDBRANCH  37  38
BRANCH  37  44
ATOM     44  N   UNL     1      -3.348  15.711 -33.285  0.00  0.00    -0.690 N 
ATOM     45  H   UNL     1      -3.089  16.616 -33.521  0.00  0.00    +0.420 HD
ATOM     46  C   UNL     1      -4.402  15.502 -32.473  0.00  0.00    +0.580 C 
ATOM     47  O   UNL     1      -4.725  14.368 -32.177  0.00  0.00    -0.520 OA
BRANCH  46  48
ATOM     48  C   UNL     1      -5.167  16.653 -31.939  0.00  0.00    +0.030 A 
ATOM     49  C   UNL     1      -5.601  17.662 -32.799  0.00  0.00    +0.290 A 
ATOM     50  N   UNL     1      -6.283  18.686 -32.318  0.00  0.00    -0.440 NA
ATOM     51  C   UNL     1      -6.552  18.756 -31.026  0.00  0.00    +0.260 A 
ATOM     52  C   UNL     1      -6.121  17.753 -30.170  0.00  0.00    +0.230 A 
ATOM     53  N   UNL     1      -5.445  16.725 -30.641  0.00  0.00    -0.410 NA
ENDBRANCH  46  48
ENDBRANCH  37  44
ENDBRANCH  35  37
ENDBRANCH  28  33
ENDBRANCH   9  28
TORSDOF 14
ENDMDL
MODEL 8
REMARK VINA RESULT:      -6.7      2.355      3.695
REMARK  Name = ZINC000003992480
REMARK  18 active torsions:
REMARK  status: ('A' for Active; 'I' for Inactive)
REMARK    1  A    between atoms: C1_1  and  C2_2
REMARK    2  A    between atoms: C2_2  and  C3_3
REMARK    3  A    between atoms: C3_3  and  C4_4
REMARK    4  A    between atoms: C4_4  and  N6_6
REMARK    5  A    between atoms: C4_4  and  C48_48
REMARK    6  A    between atoms: C7_7  and  C9_9
REMARK    7  A    between atoms: C20_20  and  C22_22
REMARK    8  A    between atoms: C22_22  and  N24_24
REMARK    9  A    between atoms: C22_22  and  C44_44
REMARK   10  A    between atoms: C25_25  and  C27_27
REMARK   11  A    between atoms: C27_27  and  N29_29
REMARK   12  A    between atoms: C27_27  and  C38_38
REMARK   13  A    between atoms: C30_30  and  C32_32
REMARK   14  A    between atoms: C44_44  and  C45_45
REMARK   15  A    between atoms: C44_44  and  C46_46
REMARK   16  A    between atoms: C44_44  and  C47_47
REMARK   17  A    between atoms: C48_48  and  C50_50
REMARK   18  A    between atoms: N52_52  and  C53_53
REMARK                            x       y       z     vdW  Elec       q    Type
REMARK                         _______ _______ _______ _____ _____    ______ ____
ROOT
ATOM      1  C   UNL     1      -2.840  20.356 -24.950  0.00  0.00    +0.230 C 
ATOM      2  C   UNL     1      -2.767  21.506 -23.937  0.00  0.00    +0.010 C 
ATOM      3  C   UNL     1      -1.698  21.186 -22.866  0.00  0.00    +0.030 C 
ATOM      4  C   UNL     1      -1.192  22.591 -22.458  0.00  0.00    +0.020 C 
ATOM      5  C   UNL     1      -1.167  23.384 -23.779  0.00  0.00    +0.020 C 
ATOM      6  C   UNL     1      -2.175  22.699 -24.735  0.00  0.00    +0.000 C 
ATOM      7  C   UNL     1      -1.392  22.022 -25.876  0.00  0.00    +0.250 C 
ATOM      8  N   UNL     1      -2.016  20.716 -26.107  0.00  0.00    -0.590 N 
ATOM      9  C   UNL     1      -1.865  19.966 -27.217  0.00  0.00    +0.540 C 
ATOM     10  O   UNL     1      -2.345  18.854 -27.267  0.00  0.00    -0.520 OA
ENDROOT
BRANCH   1  13
ATOM     11  N   UNL     1      -4.695  18.925 -25.743  0.00  0.00    -0.720 N 
ATOM     12  H   UNL     1      -4.083  18.172 -25.720  0.00  0.00    +0.410 HD
ATOM     13  C   UNL     1      -4.268  20.152 -25.385  0.00  0.00    +0.510 C 
ATOM     14  O   UNL     1      -5.033  21.092 -25.414  0.00  0.00    -0.510 OA
BRANCH  11  15
ATOM     15  C   UNL     1      -6.083  18.726 -26.167  0.00  0.00    +0.250 C 
BRANCH  15  16
ATOM     16  C   UNL     1      -6.440  17.267 -26.049  0.00  0.00    +0.350 C 
ATOM     17  O   UNL     1      -7.580  16.940 -25.817  0.00  0.00    -0.410 OA
BRANCH  16  18
ATOM     18  C   UNL     1      -5.387  16.225 -26.218  0.00  0.00    +0.480 C 
ATOM     19  N   UNL     1      -4.469  16.032 -25.251  0.00  0.00    -0.680 N 
ATOM     20  H   UNL     1      -4.492  16.570 -24.445  0.00  0.00    +0.410 HD
ATOM     21  O   UNL     1      -5.358  15.550 -27.227  0.00  0.00    -0.490 OA
BRANCH  19  22
ATOM     22  C   UNL     1      -3.434  15.008 -25.417  0.00  0.00    +0.210 C 
ATOM     23  C   UNL     1      -1.988  15.483 -25.571  0.00  0.00    +0.020 C 
ATOM     24  C   UNL     1      -2.440  14.816 -24.270  0.00  0.00    +0.030 C 
ENDBRANCH  19  22
ENDBRANCH  16  18
ENDBRANCH  15  16
BRANCH  15  25
ATOM     25  C   UNL     1      -6.242  19.175 -27.620  0.00  0.00    +0.030 C 
BRANCH  25  27
ATOM     26  C   UNL     1      -7.081  21.444 -28.245  0.00  0.00    +0.000 C 
ATOM     27  C   UNL     1      -7.488  20.054 -27.750  0.00  0.00    +0.030 C 
ENDBRANCH  25  27
ENDBRANCH  15  25
ENDBRANCH  11  15
ENDBRANCH   1  13
BRANCH   9  28
ATOM     28  C   UNL     1      -1.099  20.510 -28.396  0.00  0.00    +0.260 C 
BRANCH  28  29
ATOM     29  C   UNL     1      -2.080  20.933 -29.490  0.00  0.00    -0.070 C 
ATOM     30  C   UNL     1      -1.446  22.030 -30.348  0.00  0.00    +0.040 C 
ATOM     31  C   UNL     1      -3.362  21.467 -28.847  0.00  0.00    +0.030 C 
ATOM     32  C   UNL     1      -2.415  19.727 -30.370  0.00  0.00    +0.030 C 
ENDBRANCH  28  29
BRANCH  28  33
ATOM     33  N   UNL     1      -0.204  19.473 -28.917  0.00  0.00    -0.710 N 
ATOM     34  H   UNL     1      -0.563  18.740 -29.439  0.00  0.00    +0.410 HD
ATOM     35  C   UNL     1       1.120  19.540 -28.670  0.00  0.00    +0.520 C 
ATOM     36  O   UNL     1       1.579  20.494 -28.079  0.00  0.00    -0.520 OA
BRANCH  35  37
ATOM     37  C   UNL     1       2.028  18.429 -29.127  0.00  0.00    +0.240 C 
BRANCH  37  38
ATOM     38  C   UNL     1       3.062  18.986 -30.108  0.00  0.00    -0.010 C 
ATOM     39  C   UNL     1       2.435  20.119 -30.923  0.00  0.00    +0.020 C 
ATOM     40  C   UNL     1       3.468  20.676 -31.903  0.00  0.00    +0.010 C 
ATOM     41  C   UNL     1       4.671  21.213 -31.125  0.00  0.00    +0.000 C 
ATOM     42  C   UNL     1       5.300  20.080 -30.311  0.00  0.00    +0.000 C 
ATOM     43  C   UNL     1       4.266  19.523 -29.330  0.00  0.00    +0.040 C 
ENDBRANCH  37  38
BRANCH  37  44
ATOM     44  N   UNL     1       1.236  17.391 -29.790  0.00  0.00    -0.690 N 
ATOM     45  H   UNL     1       0.364  17.607 -30.158  0.00  0.00    +0.420 HD
ATOM     46  C   UNL     1       1.717  16.137 -29.891  0.00  0.00    +0.580 C 
ATOM     47  O   UNL     1       2.809  15.866 -29.431  0.00  0.00    -0.520 OA
BRANCH  46  48
ATOM     48  C   UNL     1       0.915  15.087 -30.562  0.00  0.00    +0.030 A 
ATOM     49  C   UNL     1      -0.429  15.315 -30.855  0.00  0.00    +0.290 A 
ATOM     50  N   UNL     1      -1.140  14.376 -31.453  0.00  0.00    -0.440 NA
ATOM     51  C   UNL     1      -0.579  13.223 -31.773  0.00  0.00    +0.260 A 
ATOM     52  C   UNL     1       0.759  12.994 -31.483  0.00  0.00    +0.230 A 
ATOM     53  N   UNL     1       1.477  13.927 -30.892  0.00  0.00    -0.410 NA
ENDBRANCH  46  48
ENDBRANCH  37  44
ENDBRANCH  35  37
ENDBRANCH  28  33
ENDBRANCH   9  28
TORSDOF 14
ENDMDL
MODEL 9
REMARK VINA RESULT:      -6.7      5.908     10.306
REMARK  Name = ZINC000003992480
REMARK  18 active torsions:
REMARK  status: ('A' for Active; 'I' for Inactive)
REMARK    1  A    between atoms: C1_1  and  C2_2
REMARK    2  A    between atoms: C2_2  and  C3_3
REMARK    3  A    between atoms: C3_3  and  C4_4
REMARK    4  A    between atoms: C4_4  and  N6_6
REMARK    5  A    between atoms: C4_4  and  C48_48
REMARK    6  A    between atoms: C7_7  and  C9_9
REMARK    7  A    between atoms: C20_20  and  C22_22
REMARK    8  A    between atoms: C22_22  and  N24_24
REMARK    9  A    between atoms: C22_22  and  C44_44
REMARK   10  A    between atoms: C25_25  and  C27_27
REMARK   11  A    between atoms: C27_27  and  N29_29
REMARK   12  A    between atoms: C27_27  and  C38_38
REMARK   13  A    between atoms: C30_30  and  C32_32
REMARK   14  A    between atoms: C44_44  and  C45_45
REMARK   15  A    between atoms: C44_44  and  C46_46
REMARK   16  A    between atoms: C44_44  and  C47_47
REMARK   17  A    between atoms: C48_48  and  C50_50
REMARK   18  A    between atoms: N52_52  and  C53_53
REMARK                            x       y       z     vdW  Elec       q    Type
REMARK                         _______ _______ _______ _____ _____    ______ ____
ROOT
ATOM      1  C   UNL     1       0.076  15.578 -32.917  0.00  0.00    +0.230 C 
ATOM      2  C   UNL     1      -0.247  14.087 -33.080  0.00  0.00    +0.010 C 
ATOM      3  C   UNL     1       1.032  13.322 -33.493  0.00  0.00    +0.030 C 
ATOM      4  C   UNL     1       0.804  11.919 -32.882  0.00  0.00    +0.020 C 
ATOM      5  C   UNL     1       0.127  12.201 -31.526  0.00  0.00    +0.020 C 
ATOM      6  C   UNL     1      -0.553  13.588 -31.642  0.00  0.00    +0.000 C 
ATOM      7  C   UNL     1       0.203  14.585 -30.742  0.00  0.00    +0.250 C 
ATOM      8  N   UNL     1       0.319  15.837 -31.494  0.00  0.00    -0.590 N 
ATOM      9  C   UNL     1       0.597  17.043 -30.961  0.00  0.00    +0.540 C 
ATOM     10  O   UNL     1       0.771  18.000 -31.685  0.00  0.00    -0.520 OA
ENDROOT
BRANCH   1  13
ATOM     11  N   UNL     1      -0.887  17.430 -34.245  0.00  0.00    -0.720 N 
ATOM     12  H   UNL     1       0.011  17.633 -34.552  0.00  0.00    +0.410 HD
ATOM     13  C   UNL     1      -1.090  16.405 -33.393  0.00  0.00    +0.510 C 
ATOM     14  O   UNL     1      -2.212  16.150 -33.009  0.00  0.00    -0.510 OA
BRANCH  11  15
ATOM     15  C   UNL     1      -2.019  18.235 -34.707  0.00  0.00    +0.250 C 
BRANCH  15  16
ATOM     16  C   UNL     1      -2.334  17.884 -36.139  0.00  0.00    +0.350 C 
ATOM     17  O   UNL     1      -3.102  18.566 -36.774  0.00  0.00    -0.410 OA
BRANCH  16  18
ATOM     18  C   UNL     1      -1.697  16.693 -36.771  0.00  0.00    +0.480 C 
ATOM     19  N   UNL     1      -2.367  15.525 -36.835  0.00  0.00    -0.680 N 
ATOM     20  H   UNL     1      -3.262  15.458 -36.470  0.00  0.00    +0.410 HD
ATOM     21  O   UNL     1      -0.576  16.776 -37.230  0.00  0.00    -0.490 OA
BRANCH  19  22
ATOM     22  C   UNL     1      -1.741  14.355 -37.457  0.00  0.00    +0.210 C 
ATOM     23  C   UNL     1      -1.287  13.223 -36.535  0.00  0.00    +0.020 C 
ATOM     24  C   UNL     1      -2.519  13.038 -37.425  0.00  0.00    +0.030 C 
ENDBRANCH  19  22
ENDBRANCH  16  18
ENDBRANCH  15  16
BRANCH  15  25
ATOM     25  C   UNL     1      -1.663  19.718 -34.612  0.00  0.00    +0.030 C 
BRANCH  25  27
ATOM     26  C   UNL     1       0.531  20.759 -34.021  0.00  0.00    +0.000 C 
ATOM     27  C   UNL     1      -0.216  19.926 -35.066  0.00  0.00    +0.030 C 
ENDBRANCH  25  27
ENDBRANCH  15  25
ENDBRANCH  11  15
ENDBRANCH   1  13
BRANCH   9  28
ATOM     28  C   UNL     1       0.692  17.202 -29.465  0.00  0.00    +0.260 C 
BRANCH  28  29
ATOM     29  C   UNL     1      -0.653  17.681 -28.917  0.00  0.00    -0.070 C 
ATOM     30  C   UNL     1      -0.508  19.108 -28.385  0.00  0.00    +0.040 C 
ATOM     31  C   UNL     1      -1.100  16.757 -27.782  0.00  0.00    +0.030 C 
ATOM     32  C   UNL     1      -1.698  17.658 -30.035  0.00  0.00    +0.030 C 
ENDBRANCH  28  29
BRANCH  28  33
ATOM     33  N   UNL     1       1.729  18.186 -29.144  0.00  0.00    -0.710 N 
ATOM     34  H   UNL     1       1.490  19.115 -29.007  0.00  0.00    +0.410 HD
ATOM     35  C   UNL     1       3.016  17.797 -29.038  0.00  0.00    +0.520 C 
ATOM     36  O   UNL     1       3.305  16.624 -29.137  0.00  0.00    -0.520 OA
BRANCH  35  37
ATOM     37  C   UNL     1       4.094  18.821 -28.797  0.00  0.00    +0.240 C 
BRANCH  37  38
ATOM     38  C   UNL     1       4.000  19.334 -27.359  0.00  0.00    -0.010 C 
ATOM     39  C   UNL     1       5.310  19.042 -26.625  0.00  0.00    +0.020 C 
ATOM     40  C   UNL     1       5.216  19.554 -25.187  0.00  0.00    +0.010 C 
ATOM     41  C   UNL     1       4.964  21.063 -25.198  0.00  0.00    +0.000 C 
ATOM     42  C   UNL     1       3.652  21.355 -25.931  0.00  0.00    +0.000 C 
ATOM     43  C   UNL     1       3.747  20.843 -27.369  0.00  0.00    +0.040 C 
ENDBRANCH  37  38
BRANCH  37  44
ATOM     44  N   UNL     1       3.923  19.940 -29.726  0.00  0.00    -0.690 N 
ATOM     45  H   UNL     1       3.040  20.312 -29.879  0.00  0.00    +0.420 HD
ATOM     46  C   UNL     1       4.990  20.454 -30.368  0.00  0.00    +0.580 C 
ATOM     47  O   UNL     1       6.097  19.988 -30.175  0.00  0.00    -0.520 OA
BRANCH  46  48
ATOM     48  C   UNL     1       4.816  21.586 -31.308  0.00  0.00    +0.030 A 
ATOM     49  C   UNL     1       4.165  22.746 -30.891  0.00  0.00    +0.290 A 
ATOM     50  N   UNL     1       4.012  23.753 -31.733  0.00  0.00    -0.440 NA
ATOM     51  C   UNL     1       4.475  23.661 -32.967  0.00  0.00    +0.260 A 
ATOM     52  C   UNL     1       5.124  22.507 -33.383  0.00  0.00    +0.230 A 
ATOM     53  N   UNL     1       5.286  21.501 -32.549  0.00  0.00    -0.410 NA
ENDBRANCH  46  48
ENDBRANCH  37  44
ENDBRANCH  35  37
ENDBRANCH  28  33
ENDBRANCH   9  28
TORSDOF 14
ENDMDL
