@<TRIPOS>MOLECULE
ZINC000003992480
102   106   1     0     0
SMALL
USER_CHARGES
@<TRIPOS>ATOM
1      C1      0.9414   -1.1214    2.2907 C.3      1 ZINC000003992480   -0.1500
2      C2      0.8387   -2.3291    1.3571 C.3      1 ZINC000003992480   -0.1200
3      C3     -0.5901   -2.8757    1.3855 C.3      1 ZINC000003992480   -0.1200
4      C4     -0.6928   -4.0834    0.4519 C.3      1 ZINC000003992480    0.1200
5      H5      0.0604   -4.8213    0.7282 H        1 ZINC000003992480    0.1300
6      N6     -0.4702   -3.6524   -0.9304 N.am     1 ZINC000003992480   -0.7200
7      C7      0.7849   -3.5509   -1.4108 C.2      1 ZINC000003992480    0.5100
8      O8      1.7301   -3.8163   -0.6987 O.2      1 ZINC000003992480   -0.5100
9      C9      1.0139   -3.1075   -2.8328 C.3      1 ZINC000003992480    0.1300
10     H10     0.3278   -2.2977   -3.0810 H        1 ZINC000003992480    0.1000
11     C11     0.7892   -4.2879   -3.7864 C.3      1 ZINC000003992480   -0.0900
12     H12     0.2245   -5.0956   -3.3209 H        1 ZINC000003992480    0.1000
13     C13     0.1288   -3.7825   -5.0897 C.3      1 ZINC000003992480   -0.1200
14     C14     0.6601   -4.7783   -6.1504 C.3      1 ZINC000003992480   -0.1200
15     C15     2.1214   -5.0356   -5.7302 C.3      1 ZINC000003992480   -0.1200
16     C16     2.2149   -4.7279   -4.2145 C.3      1 ZINC000003992480   -0.1000
17     H17     2.5971   -5.5730   -3.6421 H        1 ZINC000003992480    0.1000
18     C18     3.0621   -3.4552   -4.0219 C.3      1 ZINC000003992480    0.0900
19     N19     2.3979   -2.6506   -2.9925 N.am     1 ZINC000003992480   -0.5900
20     C20     2.9724   -1.6521   -2.2929 C.2      1 ZINC000003992480    0.5400
21     O21     2.3052   -0.9818   -1.5336 O.2      1 ZINC000003992480   -0.5200
22     C22     4.4436   -1.3686   -2.4541 C.3      1 ZINC000003992480    0.1500
23     H23     4.7706   -1.6953   -3.4412 H        1 ZINC000003992480    0.1100
24     N24     4.6822    0.0698   -2.3119 N.am     1 ZINC000003992480   -0.7100
25     C25     5.7619    0.6340   -2.8883 C.2      1 ZINC000003992480    0.5200
26     O26     6.5743   -0.0592   -3.4631 O.2      1 ZINC000003992480   -0.5200
27     C27     5.9599    2.1264   -2.8186 C.3      1 ZINC000003992480    0.1300
28     H28     5.6384    2.4903   -1.8428 H        1 ZINC000003992480    0.1100
29     N29     7.3773    2.4406   -3.0143 N.am     1 ZINC000003992480   -0.6900
30     C30     7.8892    3.5835   -2.5160 C.2      1 ZINC000003992480    0.5800
31     O31     7.1751    4.3532   -1.9043 O.2      1 ZINC000003992480   -0.5200
32     C32     9.3226    3.9013   -2.7139 C.ar     1 ZINC000003992480    0.0300
33     C33     9.8554    5.0800   -2.1943 C.ar     1 ZINC000003992480    0.1100
34     N34    11.1342    5.3591   -2.3734 N.ar     1 ZINC000003992480   -0.4400
35     C35    11.9068    4.5229   -3.0436 C.ar     1 ZINC000003992480    0.0800
36     C36    11.3793    3.3489   -3.5624 C.ar     1 ZINC000003992480    0.0500
37     N37    10.1062    3.0600   -3.3832 N.ar     1 ZINC000003992480   -0.4100
38     C38     5.1318    2.8023   -3.9133 C.3      1 ZINC000003992480   -0.0900
39     C39     3.6443    2.5565   -3.6526 C.3      1 ZINC000003992480   -0.1200
40     C40     2.8162    3.2325   -4.7472 C.3      1 ZINC000003992480   -0.1100
41     C41     3.0933    4.7372   -4.7405 C.3      1 ZINC000003992480   -0.1200
42     C42     4.5808    4.9830   -5.0012 C.3      1 ZINC000003992480   -0.1200
43     C43     5.4089    4.3070   -3.9066 C.3      1 ZINC000003992480   -0.1000
44     C44     5.2293   -2.1244   -1.3806 C.3      1 ZINC000003992480   -0.0700
45     C45     4.9817   -3.6268   -1.5303 C.3      1 ZINC000003992480   -0.1600
46     C46     6.7229   -1.8350   -1.5430 C.3      1 ZINC000003992480   -0.1300
47     C47     4.7690   -1.6673    0.0051 C.3      1 ZINC000003992480   -0.1400
48     C48    -2.0643   -4.6962    0.5723 C.2      1 ZINC000003992480    0.3500
49     O49    -2.8796   -4.5287   -0.3029 O.2      1 ZINC000003992480   -0.4100
50     C50    -2.4148   -5.5093    1.7718 C.2      1 ZINC000003992480    0.4800
51     O51    -1.5955   -5.6777    2.6513 O.2      1 ZINC000003992480   -0.4900
52     N52    -3.6414   -6.0574    1.8795 N.am     1 ZINC000003992480   -0.6800
53     C53    -3.9858   -6.8563    3.0582 C.3      1 ZINC000003992480    0.0700
54     C54    -5.3575   -6.6222    3.6941 C.3      1 ZINC000003992480   -0.1900
55     C55    -5.0896   -7.9043    2.9033 C.3      1 ZINC000003992480   -0.1800
56     H56     1.9593   -0.7320    2.2704 H        1 ZINC000003992480    0.0500
57     H57     0.2494   -0.3467    1.9602 H        1 ZINC000003992480    0.0500
58     H58     0.6887   -1.4249    3.3066 H        1 ZINC000003992480    0.0500
59     H59     1.0914   -2.0256    0.3412 H        1 ZINC000003992480    0.0800
60     H60     1.5307   -3.1037    1.6876 H        1 ZINC000003992480    0.0700
61     H61    -0.8428   -3.1792    2.4015 H        1 ZINC000003992480    0.0800
62     H62    -1.2821   -2.1010    1.0550 H        1 ZINC000003992480    0.0700
63     H63    -1.2261   -3.4401   -1.5000 H        1 ZINC000003992480    0.4100
64     H64    -0.9575   -3.8370   -5.0186 H        1 ZINC000003992480    0.0800
65     H65     0.4516   -2.7667   -5.3176 H        1 ZINC000003992480    0.0700
66     H66     0.0870   -5.7051   -6.1244 H        1 ZINC000003992480    0.0700
67     H67     0.6220   -4.3330   -7.1445 H        1 ZINC000003992480    0.0700
68     H68     2.3819   -6.0791   -5.9074 H        1 ZINC000003992480    0.0700
69     H69     2.7908   -4.3835   -6.2911 H        1 ZINC000003992480    0.0700
70     H70     4.0717   -3.7237   -3.7108 H        1 ZINC000003992480    0.0900
71     H71     3.0974   -2.8873   -4.9516 H        1 ZINC000003992480    0.0700
72     H72     4.0631    0.6162   -1.8029 H        1 ZINC000003992480    0.4100
73     H73     7.9474    1.8262   -3.5026 H        1 ZINC000003992480    0.4200
74     H74     9.2239    5.7639   -1.6468 H        1 ZINC000003992480    0.1800
75     H75    12.9519    4.7538   -3.1883 H        1 ZINC000003992480    0.1800
76     H76    12.0146    2.6683   -4.1099 H        1 ZINC000003992480    0.1800
77     H77     5.4041    2.3871   -4.8836 H        1 ZINC000003992480    0.0800
78     H78     3.4469    1.4846   -3.6574 H        1 ZINC000003992480    0.0700
79     H79     3.3720    2.9718   -2.6823 H        1 ZINC000003992480    0.0700
80     H80     3.0885    2.8172   -5.7175 H        1 ZINC000003992480    0.0600
81     H81     1.7565    3.0574   -4.5615 H        1 ZINC000003992480    0.0600
82     H82     2.5033    5.2187   -5.5203 H        1 ZINC000003992480    0.0600
83     H83     2.8210    5.1524   -3.7702 H        1 ZINC000003992480    0.0600
84     H84     4.8531    4.5677   -5.9715 H        1 ZINC000003992480    0.0600
85     H85     4.7782    6.0549   -4.9964 H        1 ZINC000003992480    0.0600
86     H86     5.1366    4.7223   -2.9362 H        1 ZINC000003992480    0.0800
87     H87     6.4686    4.4821   -4.0923 H        1 ZINC000003992480    0.0600
88     H88     5.3870   -3.9687   -2.4827 H        1 ZINC000003992480    0.0500
89     H89     5.4718   -4.1589   -0.7149 H        1 ZINC000003992480    0.0600
90     H90     3.9100   -3.8232   -1.5000 H        1 ZINC000003992480    0.0800
91     H91     6.8993   -0.7647   -1.4364 H        1 ZINC000003992480    0.0500
92     H92     7.2826   -2.3735   -0.7783 H        1 ZINC000003992480    0.0500
93     H93     7.0508   -2.1607   -2.5302 H        1 ZINC000003992480    0.0600
94     H94     3.7049   -1.8735    0.1208 H        1 ZINC000003992480    0.0700
95     H95     5.3287   -2.2058    0.7698 H        1 ZINC000003992480    0.0600
96     H96     4.9454   -0.5970    0.1117 H        1 ZINC000003992480    0.0500
97     H97    -4.2961   -5.9228    1.1766 H        1 ZINC000003992480    0.4100
98     H98    -3.1560   -7.0940    3.7239 H        1 ZINC000003992480    0.1400
99     H99    -5.4304   -6.7057    4.7785 H        1 ZINC000003992480    0.1100
100    H100   -6.0037   -5.8738    3.2355 H        1 ZINC000003992480    0.1000
101    H101   -5.5597   -7.9994    1.9245 H        1 ZINC000003992480    0.1000
102    H102   -4.9863   -8.8313    3.4674 H        1 ZINC000003992480    0.1100
@<TRIPOS>BOND
1     1     2     1
2     1     56    1
3     1     57    1
4     1     58    1
5     2     3     1
6     2     59    1
7     2     60    1
8     3     4     1
9     3     61    1
10    3     62    1
11    4     5     1
12    4     6     1
13    4     48    1
14    6     7     am
15    6     63    1
16    7     8     2
17    7     9     1
18    9     10    1
19    9     19    1
20    9     11    1
21    11    12    1
22    11    16    1
23    11    13    1
24    13    14    1
25    13    64    1
26    13    65    1
27    14    15    1
28    14    66    1
29    14    67    1
30    15    16    1
31    15    68    1
32    15    69    1
33    16    17    1
34    16    18    1
35    18    19    1
36    18    70    1
37    18    71    1
38    19    20    am
39    20    21    2
40    20    22    1
41    22    23    1
42    22    24    1
43    22    44    1
44    24    25    am
45    24    72    1
46    25    26    2
47    25    27    1
48    27    28    1
49    27    29    1
50    27    38    1
51    29    30    am
52    29    73    1
53    30    31    2
54    30    32    1
55    32    37    ar
56    32    33    ar
57    33    34    ar
58    33    74    1
59    34    35    ar
60    35    36    ar
61    35    75    1
62    36    37    ar
63    36    76    1
64    38    43    1
65    38    39    1
66    38    77    1
67    39    40    1
68    39    78    1
69    39    79    1
70    40    41    1
71    40    80    1
72    40    81    1
73    41    42    1
74    41    82    1
75    41    83    1
76    42    43    1
77    42    84    1
78    42    85    1
79    43    86    1
80    43    87    1
81    44    45    1
82    44    46    1
83    44    47    1
84    45    88    1
85    45    89    1
86    45    90    1
87    46    91    1
88    46    92    1
89    46    93    1
90    47    94    1
91    47    95    1
92    47    96    1
93    48    49    2
94    48    50    1
95    50    51    2
96    50    52    am
97    52    53    1
98    52    97    1
99    53    55    1
100   53    54    1
101   53    98    1
102   54    55    1
103   54    99    1
104   54    100   1
105   55    101   1
106   55    102   1
@<TRIPOS>SUBSTRUCTURE
1   ZINC000003992480 1     RESIDUE    1   A     ZIN   1
