REMARK  Name = ZINC000100016058
REMARK  14 active torsions:
REMARK  status: ('A' for Active; 'I' for Inactive)
REMARK    1  A    between atoms: C1_1  and  C2_2
REMARK    2  A    between atoms: C2_2  and  C3_3
REMARK    3  A    between atoms: C3_3  and  C4_4
REMARK    4  A    between atoms: C4_4  and  C5_5
REMARK    5  A    between atoms: C5_5  and  C6_6
REMARK    6  A    between atoms: C6_6  and  C7_7
REMARK    7  A    between atoms: C16_16  and  C17_17
REMARK    8  A    between atoms: C17_17  and  C19_19
REMARK    9  A    between atoms: C17_17  and  C21_21
REMARK   10  A    between atoms: C19_19  and  C20_20
REMARK   11  A    between atoms: C25_25  and  N26_26
REMARK   12  A    between atoms: N26_26  and  S27_27
REMARK   13  A    between atoms: S27_27  and  C30_30
REMARK   14  A    between atoms: C33_33  and  C34_34
REMARK                            x       y       z     vdW  Elec       q    Type
REMARK                         _______ _______ _______ _____ _____    ______ ____
ROOT
ATOM      1  C   UNL     1      -1.135  -4.402   1.005  0.00  0.00    +0.070 C 
ENDROOT
BRANCH   1   5
ATOM      2  C   UNL     1       0.685  -2.254  -1.525  0.00  0.00    +0.140 C 
ATOM      3  C   UNL     1       1.310  -2.684  -0.192  0.00  0.00    +0.040 C 
ATOM      4  C   UNL     1       1.122  -4.179  -0.036  0.00  0.00    +0.370 C 
ATOM      5  C   UNL     1      -0.280  -4.729  -0.221  0.00  0.00    -0.050 C 
ATOM      6  C   UNL     1      -0.864  -4.062  -1.450  0.00  0.00    +0.500 C 
ATOM      7  O   UNL     1      -1.468  -4.700  -2.279  0.00  0.00    -0.420 OA
ATOM      8  O   UNL     1       2.051  -4.904   0.226  0.00  0.00    -0.430 OA
ATOM      9  O   UNL     1      -0.688  -2.731  -1.588  0.00  0.00    -0.360 OA
BRANCH   2  10
ATOM     10  C   UNL     1       0.700  -0.727  -1.627  0.00  0.00    +0.070 C 
BRANCH  10  12
ATOM     11  C   UNL     1       0.021   1.399  -0.505  0.00  0.00    +0.020 C 
ATOM     12  C   UNL     1       0.006  -0.127  -0.402  0.00  0.00    +0.020 C 
ENDBRANCH  10  12
ENDBRANCH   2  10
BRANCH   2  13
ATOM     13  C   UNL     1       1.488  -2.851  -2.682  0.00  0.00    +0.020 C 
BRANCH  13  14
ATOM     14  C   UNL     1       0.862  -2.423  -4.011  0.00  0.00    +0.090 C 
BRANCH  14  15
ATOM     15  C   UNL     1       1.567  -3.120  -5.146  0.00  0.00    -0.080 A 
ATOM     16  C   UNL     1       2.672  -2.536  -5.737  0.00  0.00    +0.000 A 
ATOM     17  C   UNL     1       3.318  -3.176  -6.778  0.00  0.00    +0.000 A 
ATOM     18  C   UNL     1       2.860  -4.401  -7.227  0.00  0.00    -0.010 A 
ATOM     19  C   UNL     1       1.756  -4.985  -6.636  0.00  0.00    +0.000 A 
ATOM     20  C   UNL     1       1.112  -4.347  -5.592  0.00  0.00    +0.010 A 
ENDBRANCH  14  15
ENDBRANCH  13  14
ENDBRANCH   2  13
ENDBRANCH   1   5
BRANCH   1  21
ATOM     21  C   UNL     1      -2.507  -5.000   0.835  0.00  0.00    -0.050 A 
ATOM     22  C   UNL     1      -2.652  -6.367   0.687  0.00  0.00    -0.110 A 
ATOM     23  C   UNL     1      -3.911  -6.919   0.530  0.00  0.00    +0.040 A 
ATOM     24  C   UNL     1      -5.027  -6.106   0.521  0.00  0.00    -0.160 A 
ATOM     25  C   UNL     1      -4.885  -4.732   0.669  0.00  0.00    +0.280 A 
ATOM     26  C   UNL     1      -3.620  -4.181   0.832  0.00  0.00    -0.050 A 
BRANCH  25  27
ATOM     27  N   UNL     1      -6.012  -3.907   0.660  0.00  0.00    -1.080 NA
BRANCH  27  28
ATOM     28  S   UNL     1      -7.519  -4.567   0.473  0.00  0.00    +2.600 S 
ATOM     29  O   UNL     1      -7.763  -5.347   1.636  0.00  0.00    -1.020 OA
ATOM     30  O   UNL     1      -7.564  -5.099  -0.843  0.00  0.00    -1.000 OA
BRANCH  28  31
ATOM     31  C   UNL     1      -8.678  -3.240   0.512  0.00  0.00    -0.350 A 
ATOM     32  C   UNL     1      -9.218  -2.840   1.720  0.00  0.00    +0.070 A 
ATOM     33  C   UNL     1     -10.129  -1.794   1.739  0.00  0.00    +0.110 A 
ATOM     34  C   UNL     1     -10.462  -1.187   0.538  0.00  0.00    -0.210 A 
ATOM     35  C   UNL     1      -9.881  -1.641  -0.630  0.00  0.00    +0.300 A 
ATOM     36  N   UNL     1      -9.015  -2.635  -0.611  0.00  0.00    -0.390 NA
BRANCH  34  37
ATOM     37  C   UNL     1     -11.447  -0.046   0.508  0.00  0.00    +0.520 C 
ATOM     38  F   UNL     1     -12.365  -0.195   1.553  0.00  0.00    -0.180 F 
ATOM     39  F   UNL     1     -12.127  -0.050  -0.715  0.00  0.00    -0.170 F 
ATOM     40  F   UNL     1     -10.762   1.164   0.657  0.00  0.00    -0.170 F 
ENDBRANCH  34  37
ENDBRANCH  28  31
ENDBRANCH  27  28
ENDBRANCH  25  27
ENDBRANCH   1  21
BRANCH   1  41
ATOM     41  C   UNL     1      -0.476  -4.987   2.256  0.00  0.00    +0.020 C 
ATOM     42  C   UNL     1      -1.256  -4.547   3.497  0.00  0.00    +0.020 C 
ENDBRANCH   1  41
TORSDOF 12
