@<TRIPOS>MOLECULE
ZINC000100016058
74    77    1     0     0
SMALL
USER_CHARGES
@<TRIPOS>ATOM
1      C1      0.0208    1.3991   -0.5046 C.3      1 ZINC000100016058   -0.1500
2      C2      0.0058   -0.1274   -0.4024 C.3      1 ZINC000100016058   -0.1300
3      C3      0.6999   -0.7274   -1.6268 C.3      1 ZINC000100016058   -0.1100
4      C4      0.6849   -2.2539   -1.5246 C.3      1 ZINC000100016058    0.1400
5      C5      1.4877   -2.8512   -2.6821 C.3      1 ZINC000100016058   -0.1400
6      C6      0.8622   -2.4228   -4.0110 C.3      1 ZINC000100016058   -0.0800
7      C7      1.5669   -3.1204   -5.1459 C.ar     1 ZINC000100016058   -0.0800
8      C8      2.6718   -2.5364   -5.7366 C.ar     1 ZINC000100016058   -0.1200
9      C9      3.3182   -3.1764   -6.7776 C.ar     1 ZINC000100016058   -0.1200
10     C10     2.8599   -4.4005   -7.2274 C.ar     1 ZINC000100016058   -0.1300
11     C11     1.7556   -4.9849   -6.6361 C.ar     1 ZINC000100016058   -0.1200
12     C12     1.1118   -4.3470   -5.5923 C.ar     1 ZINC000100016058   -0.1100
13     C13     1.3096   -2.6838   -0.1920 C.3      1 ZINC000100016058   -0.2000
14     C14     1.1216   -4.1791   -0.0359 C.2      1 ZINC000100016058    0.3700
15     O15     2.0509   -4.9044    0.2260 O.2      1 ZINC000100016058   -0.4300
16     C16    -0.2801   -4.7293   -0.2211 C.3      1 ZINC000100016058   -0.1800
17     C17    -1.1345   -4.4024    1.0053 C.3      1 ZINC000100016058   -0.0200
18     H18    -1.2194   -3.3209    1.1111 H        1 ZINC000100016058    0.0900
19     C19    -0.4759   -4.9871    2.2563 C.3      1 ZINC000100016058   -0.1100
20     C20    -1.2562   -4.5470    3.4966 C.3      1 ZINC000100016058   -0.1500
21     C21    -2.5075   -4.9997    0.8346 C.ar     1 ZINC000100016058   -0.0500
22     C22    -2.6523   -6.3668    0.6867 C.ar     1 ZINC000100016058   -0.2100
23     C23    -3.9106   -6.9192    0.5302 C.ar     1 ZINC000100016058   -0.0600
24     C24    -5.0268   -6.1064    0.5208 C.ar     1 ZINC000100016058   -0.2600
25     C25    -4.8849   -4.7323    0.6692 C.ar     1 ZINC000100016058    0.2800
26     N26    -6.0119   -3.9073    0.6605 N.pl3    1 ZINC000100016058   -1.0800
27     S27    -7.5194   -4.5667    0.4733 S.o2     1 ZINC000100016058    2.6000
28     O28    -7.5636   -5.0995   -0.8433 O.2      1 ZINC000100016058   -1.0000
29     O29    -7.7635   -5.3466    1.6359 O.2      1 ZINC000100016058   -1.0200
30     C30    -8.6778   -3.2396    0.5122 C.ar     1 ZINC000100016058   -0.3500
31     C31    -9.2184   -2.8402    1.7195 C.ar     1 ZINC000100016058   -0.0900
32     C32   -10.1288   -1.7944    1.7393 C.ar     1 ZINC000100016058   -0.0400
33     C33   -10.4624   -1.1872    0.5385 C.ar     1 ZINC000100016058   -0.2100
34     C34   -11.4465   -0.0463    0.5079 C.3      1 ZINC000100016058    0.5200
35     F35   -10.7617    1.1644    0.6572 F        1 ZINC000100016058   -0.1700
36     F36   -12.1265   -0.0497   -0.7148 F        1 ZINC000100016058   -0.1700
37     F37   -12.3650   -0.1946    1.5527 F        1 ZINC000100016058   -0.1800
38     C38    -9.8806   -1.6412   -0.6302 C.ar     1 ZINC000100016058    0.1300
39     N39    -9.0146   -2.6353   -0.6106 N.ar     1 ZINC000100016058   -0.3900
40     C40    -3.6203   -4.1815    0.8318 C.ar     1 ZINC000100016058   -0.1600
41     C41    -0.8641   -4.0616   -1.4502 C.2      1 ZINC000100016058    0.5000
42     O42    -1.4685   -4.7000   -2.2790 O.2      1 ZINC000100016058   -0.4200
43     O43    -0.6876   -2.7312   -1.5883 O.3      1 ZINC000100016058   -0.3600
44     H44     1.0518    1.7503   -0.5463 H        1 ZINC000100016058    0.0500
45     H45    -0.5050    1.7080   -1.4081 H        1 ZINC000100016058    0.0600
46     H46    -0.4737    1.8266    0.3676 H        1 ZINC000100016058    0.0600
47     H47     0.5316   -0.4362    0.5010 H        1 ZINC000100016058    0.0700
48     H48    -1.0253   -0.4786   -0.3608 H        1 ZINC000100016058    0.0800
49     H49     0.1741   -0.4185   -2.5303 H        1 ZINC000100016058    0.0900
50     H50     1.7310   -0.3761   -1.6684 H        1 ZINC000100016058    0.0900
51     H51     2.5164   -2.4944   -2.6329 H        1 ZINC000100016058    0.0900
52     H52     1.4763   -3.9387   -2.6090 H        1 ZINC000100016058    0.0700
53     H53    -0.1940   -2.6918   -4.0190 H        1 ZINC000100016058    0.0900
54     H54     0.9632   -1.3439   -4.1291 H        1 ZINC000100016058    0.0800
55     H55     3.0299   -1.5800   -5.3851 H        1 ZINC000100016058    0.1200
56     H56     4.1810   -2.7198   -7.2396 H        1 ZINC000100016058    0.1200
57     H57     3.3645   -4.9001   -8.0412 H        1 ZINC000100016058    0.1200
58     H58     1.3973   -5.9411   -6.9878 H        1 ZINC000100016058    0.1200
59     H59     0.2489   -4.8035   -5.1303 H        1 ZINC000100016058    0.1200
60     H60     2.3732   -2.4455   -0.1914 H        1 ZINC000100016058    0.1100
61     H61     0.8161   -2.1641    0.6293 H        1 ZINC000100016058    0.1300
62     H62    -0.2389   -5.8086   -0.3676 H        1 ZINC000100016058    0.1300
63     H63    -0.4778   -6.0753    2.1931 H        1 ZINC000100016058    0.0700
64     H64     0.5512   -4.6292    2.3273 H        1 ZINC000100016058    0.0600
65     H65    -1.3349   -3.4599    3.5094 H        1 ZINC000100016058    0.0500
66     H66    -2.2547   -4.9833    3.4714 H        1 ZINC000100016058    0.0700
67     H67    -0.7348   -4.8841    4.3925 H        1 ZINC000100016058    0.0500
68     H68    -1.7808   -7.0047    0.6930 H        1 ZINC000100016058    0.1000
69     H69    -4.0202   -7.9874    0.4149 H        1 ZINC000100016058    0.1000
70     H70    -6.0090   -6.5383    0.3979 H        1 ZINC000100016058    0.1000
71     H71    -8.9358   -3.3365    2.6361 H        1 ZINC000100016058    0.1600
72     H72   -10.5679   -1.4611    2.6680 H        1 ZINC000100016058    0.1500
73     H73   -10.1354   -1.1737   -1.5699 H        1 ZINC000100016058    0.1700
74     H74    -3.5065   -3.1137    0.9474 H        1 ZINC000100016058    0.1100
@<TRIPOS>BOND
1     1     2     1
2     1     44    1
3     1     45    1
4     1     46    1
5     2     3     1
6     2     47    1
7     2     48    1
8     3     4     1
9     3     49    1
10    3     50    1
11    4     43    1
12    4     5     1
13    4     13    1
14    5     6     1
15    5     51    1
16    5     52    1
17    6     7     1
18    6     53    1
19    6     54    1
20    7     12    ar
21    7     8     ar
22    8     9     ar
23    8     55    1
24    9     10    ar
25    9     56    1
26    10    11    ar
27    10    57    1
28    11    12    ar
29    11    58    1
30    12    59    1
31    13    14    1
32    13    60    1
33    13    61    1
34    14    15    2
35    14    16    1
36    16    17    1
37    16    41    1
38    16    62    1
39    17    18    1
40    17    19    1
41    17    21    1
42    19    20    1
43    19    63    1
44    19    64    1
45    20    65    1
46    20    66    1
47    20    67    1
48    21    40    ar
49    21    22    ar
50    22    23    ar
51    22    68    1
52    23    24    ar
53    23    69    1
54    24    25    ar
55    24    70    1
56    25    26    1
57    25    40    ar
58    26    27    1
59    27    28    2
60    27    29    2
61    27    30    1
62    30    39    ar
63    30    31    ar
64    31    32    ar
65    31    71    1
66    32    33    ar
67    32    72    1
68    33    34    1
69    33    38    ar
70    34    35    1
71    34    36    1
72    34    37    1
73    38    39    ar
74    38    73    1
75    40    74    1
76    41    42    2
77    41    43    1
@<TRIPOS>SUBSTRUCTURE
1   ZINC000100016058 1     RESIDUE    1   A     ZIN   1
