MODEL 1
REMARK VINA RESULT:      -7.9      0.000      0.000
REMARK  Name = ZINC000000896717
REMARK  12 active torsions:
REMARK  status: ('A' for Active; 'I' for Inactive)
REMARK    1  A    between atoms: C1_1  and  O2_2
REMARK    2  A    between atoms: O2_2  and  C3_3
REMARK    3  A    between atoms: C5_5  and  C6_6
REMARK    4  A    between atoms: N8_8  and  S9_9
REMARK    5  A    between atoms: S9_9  and  C12_12
REMARK    6  A    between atoms: C17_17  and  C18_18
REMARK    7  A    between atoms: C21_21  and  C22_22
REMARK    8  A    between atoms: C22_22  and  C23_23
REMARK    9  A    between atoms: N25_25  and  C26_26
REMARK   10  A    between atoms: C30_30  and  N31_31
REMARK   11  A    between atoms: C32_32  and  O34_34
REMARK   12  A    between atoms: O34_34  and  C35_35
REMARK                            x       y       z     vdW  Elec       q    Type
REMARK                         _______ _______ _______ _____ _____    ______ ____
ROOT
ATOM      1  C   UNL     1      -1.152  19.096 -27.979  0.00  0.00    +0.110 A 
ATOM      2  C   UNL     1      -0.703  17.974 -28.656  0.00  0.00    -0.040 A 
ATOM      3  C   UNL     1      -0.893  16.709 -28.100  0.00  0.00    -0.050 A 
ATOM      4  C   UNL     1      -1.532  16.581 -26.866  0.00  0.00    +0.050 A 
ATOM      5  C   UNL     1      -1.975  17.706 -26.200  0.00  0.00    +0.020 A 
ATOM      6  C   UNL     1      -1.783  18.960 -26.749  0.00  0.00    -0.100 A 
ENDROOT
BRANCH   3   7
ATOM      7  C   UNL     1      -0.416  15.505 -28.816  0.00  0.00    +0.560 C 
ATOM      8  N   UNL     1      -0.404  15.483 -30.164  0.00  0.00    -1.110 NA
ATOM      9  O   UNL     1      -0.035  14.536 -28.189  0.00  0.00    -0.630 OA
BRANCH   8  10
ATOM     10  S   UNL     1       0.130  14.137 -30.965  0.00  0.00    +2.640 S 
ATOM     11  O   UNL     1      -0.776  13.091 -30.641  0.00  0.00    -1.020 OA
ATOM     12  O   UNL     1       1.528  14.055 -30.725  0.00  0.00    -1.020 OA
BRANCH  10  13
ATOM     13  C   UNL     1      -0.062  14.445 -32.689  0.00  0.00    -0.630 A 
ATOM     14  C   UNL     1      -0.480  15.689 -33.127  0.00  0.00    +0.110 A 
ATOM     15  C   UNL     1      -0.631  15.931 -34.479  0.00  0.00    -0.040 A 
ATOM     16  C   UNL     1      -0.364  14.930 -35.394  0.00  0.00    +0.040 A 
ATOM     17  C   UNL     1       0.055  13.687 -34.957  0.00  0.00    -0.030 A 
ATOM     18  C   UNL     1       0.210  13.446 -33.605  0.00  0.00    +0.020 A 
ATOM     19  C   UNL     1       0.666  12.091 -33.128  0.00  0.00    +0.100 C 
ENDBRANCH  10  13
ENDBRANCH   8  10
ENDBRANCH   3   7
BRANCH   1  21
ATOM     20  C   UNL     1      -1.691  20.630 -29.713  0.00  0.00    +0.220 C 
ATOM     21  O   UNL     1      -0.970  20.331 -28.517  0.00  0.00    -0.320 OA
ENDBRANCH   1  21
BRANCH   6  22
ATOM     22  C   UNL     1      -2.269  20.183 -26.016  0.00  0.00    +0.170 C 
BRANCH  22  23
ATOM     23  C   UNL     1      -3.680  19.955 -25.539  0.00  0.00    -0.150 A 
ATOM     24  C   UNL     1      -4.153  20.187 -24.304  0.00  0.00    +0.230 A 
ATOM     25  N   UNL     1      -5.480  19.862 -24.243  0.00  0.00    -0.490 N 
ATOM     26  C   UNL     1      -5.905  19.400 -25.471  0.00  0.00    +0.090 A 
ATOM     27  C   UNL     1      -7.131  18.947 -25.948  0.00  0.00    +0.010 A 
ATOM     28  C   UNL     1      -7.253  18.540 -27.257  0.00  0.00    +0.010 A 
ATOM     29  C   UNL     1      -6.156  18.577 -28.117  0.00  0.00    +0.120 A 
ATOM     30  C   UNL     1      -4.929  19.025 -27.662  0.00  0.00    +0.080 A 
ATOM     31  C   UNL     1      -6.324  19.984 -23.052  0.00  0.00    +0.310 C 
ATOM     32  C   UNL     1      -4.797  19.445 -26.337  0.00  0.00    -0.080 A 
BRANCH  29  33
ATOM     33  N   UNL     1      -6.297  18.159 -29.448  0.00  0.00    -0.650 N 
ATOM     34  H   UNL     1      -6.552  18.796 -30.132  0.00  0.00    +0.410 HD
ATOM     35  C   UNL     1      -6.076  16.870 -29.776  0.00  0.00    +0.650 C 
ATOM     36  O   UNL     1      -5.850  16.051 -28.906  0.00  0.00    -0.550 OA
BRANCH  35  37
ATOM     37  O   UNL     1      -6.106  16.489 -31.067  0.00  0.00    -0.360 OA
BRANCH  37  38
ATOM     38  C   UNL     1      -5.352  17.295 -32.009  0.00  0.00    +0.200 C 
ATOM     39  C   UNL     1      -4.375  16.409 -32.821  0.00  0.00    +0.010 C 
ATOM     40  C   UNL     1      -4.142  17.244 -34.104  0.00  0.00    +0.020 C 
ATOM     41  C   UNL     1      -5.521  17.866 -34.407  0.00  0.00    +0.020 C 
ATOM     42  C   UNL     1      -6.290  17.898 -33.075  0.00  0.00    +0.040 C 
ENDBRANCH  37  38
ENDBRANCH  35  37
ENDBRANCH  29  33
ENDBRANCH  22  23
ENDBRANCH   6  22
TORSDOF 9
ENDMDL
MODEL 2
REMARK VINA RESULT:      -7.3      6.313     10.456
REMARK  Name = ZINC000000896717
REMARK  12 active torsions:
REMARK  status: ('A' for Active; 'I' for Inactive)
REMARK    1  A    between atoms: C1_1  and  O2_2
REMARK    2  A    between atoms: O2_2  and  C3_3
REMARK    3  A    between atoms: C5_5  and  C6_6
REMARK    4  A    between atoms: N8_8  and  S9_9
REMARK    5  A    between atoms: S9_9  and  C12_12
REMARK    6  A    between atoms: C17_17  and  C18_18
REMARK    7  A    between atoms: C21_21  and  C22_22
REMARK    8  A    between atoms: C22_22  and  C23_23
REMARK    9  A    between atoms: N25_25  and  C26_26
REMARK   10  A    between atoms: C30_30  and  N31_31
REMARK   11  A    between atoms: C32_32  and  O34_34
REMARK   12  A    between atoms: O34_34  and  C35_35
REMARK                            x       y       z     vdW  Elec       q    Type
REMARK                         _______ _______ _______ _____ _____    ______ ____
ROOT
ATOM      1  C   UNL     1       5.717  21.163 -26.976  0.00  0.00    +0.110 A 
ATOM      2  C   UNL     1       5.258  21.710 -25.790  0.00  0.00    -0.040 A 
ATOM      3  C   UNL     1       4.725  20.879 -24.805  0.00  0.00    -0.050 A 
ATOM      4  C   UNL     1       4.656  19.502 -25.020  0.00  0.00    +0.050 A 
ATOM      5  C   UNL     1       5.115  18.967 -26.208  0.00  0.00    +0.020 A 
ATOM      6  C   UNL     1       5.639  19.792 -27.186  0.00  0.00    -0.100 A 
ENDROOT
BRANCH   3   7
ATOM      7  C   UNL     1       4.232  21.456 -23.535  0.00  0.00    +0.560 C 
ATOM      8  N   UNL     1       3.393  20.748 -22.753  0.00  0.00    -1.110 NA
ATOM      9  O   UNL     1       4.584  22.570 -23.197  0.00  0.00    -0.630 OA
BRANCH   8  10
ATOM     10  S   UNL     1       2.842  21.395 -21.332  0.00  0.00    +2.640 S 
ATOM     11  O   UNL     1       1.929  22.425 -21.687  0.00  0.00    -1.020 OA
ATOM     12  O   UNL     1       3.987  21.616 -20.521  0.00  0.00    -1.020 OA
BRANCH  10  13
ATOM     13  C   UNL     1       1.894  20.148 -20.525  0.00  0.00    -0.630 A 
ATOM     14  C   UNL     1       0.586  20.403 -20.157  0.00  0.00    +0.110 A 
ATOM     15  C   UNL     1      -0.158  19.425 -19.524  0.00  0.00    -0.040 A 
ATOM     16  C   UNL     1       0.407  18.191 -19.259  0.00  0.00    +0.040 A 
ATOM     17  C   UNL     1       1.715  17.935 -19.627  0.00  0.00    -0.030 A 
ATOM     18  C   UNL     1       2.457  18.912 -20.265  0.00  0.00    +0.020 A 
ATOM     19  C   UNL     1       3.882  18.634 -20.666  0.00  0.00    +0.100 C 
ENDBRANCH  10  13
ENDBRANCH   8  10
ENDBRANCH   3   7
BRANCH   1  21
ATOM     20  C   UNL     1       5.632  23.251 -28.110  0.00  0.00    +0.220 C 
ATOM     21  O   UNL     1       6.238  21.968 -27.939  0.00  0.00    -0.320 OA
ENDBRANCH   1  21
BRANCH   6  22
ATOM     22  C   UNL     1       6.139  19.200 -28.478  0.00  0.00    +0.170 C 
BRANCH  22  23
ATOM     23  C   UNL     1       5.303  19.711 -29.622  0.00  0.00    -0.150 A 
ATOM     24  C   UNL     1       5.730  20.461 -30.651  0.00  0.00    +0.230 A 
ATOM     25  N   UNL     1       4.688  20.732 -31.494  0.00  0.00    -0.490 N 
ATOM     26  C   UNL     1       3.534  20.150 -31.016  0.00  0.00    +0.090 A 
ATOM     27  C   UNL     1       2.221  20.114 -31.475  0.00  0.00    +0.010 A 
ATOM     28  C   UNL     1       1.260  19.433 -30.762  0.00  0.00    +0.010 A 
ATOM     29  C   UNL     1       1.589  18.773 -29.578  0.00  0.00    +0.120 A 
ATOM     30  C   UNL     1       2.889  18.795 -29.107  0.00  0.00    +0.080 A 
ATOM     31  C   UNL     1       4.783  21.526 -32.722  0.00  0.00    +0.310 C 
ATOM     32  C   UNL     1       3.871  19.479 -29.825  0.00  0.00    -0.080 A 
BRANCH  29  33
ATOM     33  N   UNL     1       0.599  18.083 -28.865  0.00  0.00    -0.650 N 
ATOM     34  H   UNL     1       0.191  18.489 -28.085  0.00  0.00    +0.410 HD
ATOM     35  C   UNL     1       0.212  16.855 -29.265  0.00  0.00    +0.650 C 
ATOM     36  O   UNL     1       0.788  16.306 -30.184  0.00  0.00    -0.550 OA
BRANCH  35  37
ATOM     37  O   UNL     1      -0.812  16.237 -28.648  0.00  0.00    -0.360 OA
BRANCH  37  38
ATOM     38  C   UNL     1      -1.260  16.802 -27.387  0.00  0.00    +0.200 C 
ATOM     39  C   UNL     1      -2.591  17.568 -27.579  0.00  0.00    +0.010 C 
ATOM     40  C   UNL     1      -3.202  17.555 -26.155  0.00  0.00    +0.020 C 
ATOM     41  C   UNL     1      -2.843  16.159 -25.604  0.00  0.00    +0.020 C 
ATOM     42  C   UNL     1      -1.608  15.681 -26.387  0.00  0.00    +0.040 C 
ENDBRANCH  37  38
ENDBRANCH  35  37
ENDBRANCH  29  33
ENDBRANCH  22  23
ENDBRANCH   6  22
TORSDOF 9
ENDMDL
MODEL 3
REMARK VINA RESULT:      -7.2      3.989      7.236
REMARK  Name = ZINC000000896717
REMARK  12 active torsions:
REMARK  status: ('A' for Active; 'I' for Inactive)
REMARK    1  A    between atoms: C1_1  and  O2_2
REMARK    2  A    between atoms: O2_2  and  C3_3
REMARK    3  A    between atoms: C5_5  and  C6_6
REMARK    4  A    between atoms: N8_8  and  S9_9
REMARK    5  A    between atoms: S9_9  and  C12_12
REMARK    6  A    between atoms: C17_17  and  C18_18
REMARK    7  A    between atoms: C21_21  and  C22_22
REMARK    8  A    between atoms: C22_22  and  C23_23
REMARK    9  A    between atoms: N25_25  and  C26_26
REMARK   10  A    between atoms: C30_30  and  N31_31
REMARK   11  A    between atoms: C32_32  and  O34_34
REMARK   12  A    between atoms: O34_34  and  C35_35
REMARK                            x       y       z     vdW  Elec       q    Type
REMARK                         _______ _______ _______ _____ _____    ______ ____
ROOT
ATOM      1  C   UNL     1      -0.472  15.051 -32.233  0.00  0.00    +0.110 A 
ATOM      2  C   UNL     1      -0.953  14.747 -33.496  0.00  0.00    -0.040 A 
ATOM      3  C   UNL     1      -0.094  14.202 -34.451  0.00  0.00    -0.050 A 
ATOM      4  C   UNL     1       1.243  13.966 -34.128  0.00  0.00    +0.050 A 
ATOM      5  C   UNL     1       1.711  14.274 -32.866  0.00  0.00    +0.020 A 
ATOM      6  C   UNL     1       0.861  14.819 -31.922  0.00  0.00    -0.100 A 
ENDROOT
BRANCH   3   7
ATOM      7  C   UNL     1      -0.600  13.875 -35.802  0.00  0.00    +0.560 C 
ATOM      8  N   UNL     1      -1.030  12.627 -36.077  0.00  0.00    -1.110 NA
ATOM      9  O   UNL     1      -0.626  14.731 -36.664  0.00  0.00    -0.630 OA
BRANCH   8  10
ATOM     10  S   UNL     1      -1.596  12.262 -37.589  0.00  0.00    +2.640 S 
ATOM     11  O   UNL     1      -0.653  12.793 -38.510  0.00  0.00    -1.020 OA
ATOM     12  O   UNL     1      -2.973  12.612 -37.599  0.00  0.00    -1.020 OA
BRANCH  10  13
ATOM     13  C   UNL     1      -1.527  10.510 -37.762  0.00  0.00    -0.630 A 
ATOM     14  C   UNL     1      -0.553   9.787 -37.098  0.00  0.00    +0.110 A 
ATOM     15  C   UNL     1      -0.499   8.413 -37.233  0.00  0.00    -0.040 A 
ATOM     16  C   UNL     1      -1.418   7.761 -38.034  0.00  0.00    +0.040 A 
ATOM     17  C   UNL     1      -2.393   8.483 -38.698  0.00  0.00    -0.030 A 
ATOM     18  C   UNL     1      -2.450   9.857 -38.558  0.00  0.00    +0.020 A 
ATOM     19  C   UNL     1      -3.511  10.644 -39.282  0.00  0.00    +0.100 C 
ENDBRANCH  10  13
ENDBRANCH   8  10
ENDBRANCH   3   7
BRANCH   1  21
ATOM     20  C   UNL     1      -2.169  16.637 -31.726  0.00  0.00    +0.220 C 
ATOM     21  O   UNL     1      -1.305  15.582 -31.300  0.00  0.00    -0.320 OA
ENDBRANCH   1  21
BRANCH   6  22
ATOM     22  C   UNL     1       1.381  15.151 -30.547  0.00  0.00    +0.170 C 
BRANCH  22  23
ATOM     23  C   UNL     1       1.431  16.647 -30.377  0.00  0.00    -0.150 A 
ATOM     24  C   UNL     1       2.222  17.501 -31.047  0.00  0.00    +0.230 A 
ATOM     25  N   UNL     1       1.990  18.781 -30.625  0.00  0.00    -0.490 N 
ATOM     26  C   UNL     1       1.018  18.783 -29.648  0.00  0.00    +0.090 A 
ATOM     27  C   UNL     1       0.420  19.791 -28.899  0.00  0.00    +0.010 A 
ATOM     28  C   UNL     1      -0.548  19.477 -27.971  0.00  0.00    +0.010 A 
ATOM     29  C   UNL     1      -0.939  18.154 -27.773  0.00  0.00    +0.120 A 
ATOM     30  C   UNL     1      -0.357  17.138 -28.508  0.00  0.00    +0.080 A 
ATOM     31  C   UNL     1       2.673  19.972 -31.136  0.00  0.00    +0.310 C 
ATOM     32  C   UNL     1       0.622  17.447 -29.455  0.00  0.00    -0.080 A 
BRANCH  29  33
ATOM     33  N   UNL     1      -1.927  17.852 -26.824  0.00  0.00    -0.650 N 
ATOM     34  H   UNL     1      -1.719  17.889 -25.878  0.00  0.00    +0.410 HD
ATOM     35  C   UNL     1      -3.167  17.512 -27.228  0.00  0.00    +0.650 C 
ATOM     36  O   UNL     1      -3.404  17.372 -28.412  0.00  0.00    -0.550 OA
BRANCH  35  37
ATOM     37  O   UNL     1      -4.144  17.327 -26.320  0.00  0.00    -0.360 OA
BRANCH  37  38
ATOM     38  C   UNL     1      -5.503  17.240 -26.823  0.00  0.00    +0.200 C 
ATOM     39  C   UNL     1      -6.239  16.034 -26.189  0.00  0.00    +0.010 C 
ATOM     40  C   UNL     1      -7.729  16.433 -26.325  0.00  0.00    +0.020 C 
ATOM     41  C   UNL     1      -7.740  17.952 -26.054  0.00  0.00    +0.020 C 
ATOM     42  C   UNL     1      -6.325  18.465 -26.371  0.00  0.00    +0.040 C 
ENDBRANCH  37  38
ENDBRANCH  35  37
ENDBRANCH  29  33
ENDBRANCH  22  23
ENDBRANCH   6  22
TORSDOF 9
ENDMDL
MODEL 4
REMARK VINA RESULT:      -7.0      5.536     11.818
REMARK  Name = ZINC000000896717
REMARK  12 active torsions:
REMARK  status: ('A' for Active; 'I' for Inactive)
REMARK    1  A    between atoms: C1_1  and  O2_2
REMARK    2  A    between atoms: O2_2  and  C3_3
REMARK    3  A    between atoms: C5_5  and  C6_6
REMARK    4  A    between atoms: N8_8  and  S9_9
REMARK    5  A    between atoms: S9_9  and  C12_12
REMARK    6  A    between atoms: C17_17  and  C18_18
REMARK    7  A    between atoms: C21_21  and  C22_22
REMARK    8  A    between atoms: C22_22  and  C23_23
REMARK    9  A    between atoms: N25_25  and  C26_26
REMARK   10  A    between atoms: C30_30  and  N31_31
REMARK   11  A    between atoms: C32_32  and  O34_34
REMARK   12  A    between atoms: O34_34  and  C35_35
REMARK                            x       y       z     vdW  Elec       q    Type
REMARK                         _______ _______ _______ _____ _____    ______ ____
ROOT
ATOM      1  C   UNL     1      -1.091  13.854 -39.309  0.00  0.00    +0.110 A 
ATOM      2  C   UNL     1      -1.022  14.738 -38.245  0.00  0.00    -0.040 A 
ATOM      3  C   UNL     1      -2.076  14.809 -37.334  0.00  0.00    -0.050 A 
ATOM      4  C   UNL     1      -3.194  13.991 -37.501  0.00  0.00    +0.050 A 
ATOM      5  C   UNL     1      -3.253  13.114 -38.566  0.00  0.00    +0.020 A 
ATOM      6  C   UNL     1      -2.210  13.047 -39.471  0.00  0.00    -0.100 A 
ENDROOT
BRANCH   3   7
ATOM      7  C   UNL     1      -2.010  15.751 -36.195  0.00  0.00    +0.560 C 
ATOM      8  N   UNL     1      -3.146  16.239 -35.658  0.00  0.00    -1.110 NA
ATOM      9  O   UNL     1      -0.932  16.084 -35.745  0.00  0.00    -0.630 OA
BRANCH   8  10
ATOM     10  S   UNL     1      -3.072  17.293 -34.383  0.00  0.00    +2.640 S 
ATOM     11  O   UNL     1      -3.337  18.585 -34.914  0.00  0.00    -1.020 OA
ATOM     12  O   UNL     1      -1.885  16.976 -33.669  0.00  0.00    -1.020 OA
BRANCH  10  13
ATOM     13  C   UNL     1      -4.416  16.910 -33.311  0.00  0.00    -0.630 A 
ATOM     14  C   UNL     1      -5.456  17.809 -33.157  0.00  0.00    +0.110 A 
ATOM     15  C   UNL     1      -6.511  17.509 -32.316  0.00  0.00    -0.040 A 
ATOM     16  C   UNL     1      -6.526  16.310 -31.628  0.00  0.00    +0.040 A 
ATOM     17  C   UNL     1      -5.487  15.411 -31.782  0.00  0.00    -0.030 A 
ATOM     18  C   UNL     1      -4.434  15.709 -32.627  0.00  0.00    +0.020 A 
ATOM     19  C   UNL     1      -3.302  14.730 -32.795  0.00  0.00    +0.100 C 
ENDBRANCH  10  13
ENDBRANCH   8  10
ENDBRANCH   3   7
BRANCH   1  21
ATOM     20  C   UNL     1       0.109  14.892 -41.079  0.00  0.00    +0.220 C 
ATOM     21  O   UNL     1      -0.066  13.781 -40.198  0.00  0.00    -0.320 OA
ENDBRANCH   1  21
BRANCH   6  22
ATOM     22  C   UNL     1      -2.281  12.087 -40.630  0.00  0.00    +0.170 C 
BRANCH  22  23
ATOM     23  C   UNL     1      -2.486  10.688 -40.111  0.00  0.00    -0.150 A 
ATOM     24  C   UNL     1      -3.316   9.762 -40.618  0.00  0.00    +0.230 A 
ATOM     25  N   UNL     1      -3.234   8.610 -39.885  0.00  0.00    -0.490 N 
ATOM     26  C   UNL     1      -2.326   8.770 -38.861  0.00  0.00    +0.090 A 
ATOM     27  C   UNL     1      -1.873   7.933 -37.847  0.00  0.00    +0.010 A 
ATOM     28  C   UNL     1      -0.935   8.387 -36.947  0.00  0.00    +0.010 A 
ATOM     29  C   UNL     1      -0.430   9.683 -37.040  0.00  0.00    +0.120 A 
ATOM     30  C   UNL     1      -0.867  10.529 -38.042  0.00  0.00    +0.080 A 
ATOM     31  C   UNL     1      -3.998   7.388 -40.149  0.00  0.00    +0.310 C 
ATOM     32  C   UNL     1      -1.814  10.077 -38.963  0.00  0.00    -0.080 A 
BRANCH  29  33
ATOM     33  N   UNL     1       0.525  10.128 -36.115  0.00  0.00    -0.650 N 
ATOM     34  H   UNL     1       1.316   9.596 -35.939  0.00  0.00    +0.410 HD
ATOM     35  C   UNL     1       0.343  11.298 -35.471  0.00  0.00    +0.650 C 
ATOM     36  O   UNL     1      -0.691  11.919 -35.617  0.00  0.00    -0.550 OA
BRANCH  35  37
ATOM     37  O   UNL     1       1.308  11.779 -34.664  0.00  0.00    -0.360 OA
BRANCH  37  38
ATOM     38  C   UNL     1       0.916  12.786 -33.694  0.00  0.00    +0.200 C 
ATOM     39  C   UNL     1       0.731  12.148 -32.296  0.00  0.00    +0.010 C 
ATOM     40  C   UNL     1       0.929  13.352 -31.342  0.00  0.00    +0.020 C 
ATOM     41  C   UNL     1       2.057  14.173 -31.999  0.00  0.00    +0.020 C 
ATOM     42  C   UNL     1       2.049  13.814 -33.495  0.00  0.00    +0.040 C 
ENDBRANCH  37  38
ENDBRANCH  35  37
ENDBRANCH  29  33
ENDBRANCH  22  23
ENDBRANCH   6  22
TORSDOF 9
ENDMDL
MODEL 5
REMARK VINA RESULT:      -7.0      5.878      8.800
REMARK  Name = ZINC000000896717
REMARK  12 active torsions:
REMARK  status: ('A' for Active; 'I' for Inactive)
REMARK    1  A    between atoms: C1_1  and  O2_2
REMARK    2  A    between atoms: O2_2  and  C3_3
REMARK    3  A    between atoms: C5_5  and  C6_6
REMARK    4  A    between atoms: N8_8  and  S9_9
REMARK    5  A    between atoms: S9_9  and  C12_12
REMARK    6  A    between atoms: C17_17  and  C18_18
REMARK    7  A    between atoms: C21_21  and  C22_22
REMARK    8  A    between atoms: C22_22  and  C23_23
REMARK    9  A    between atoms: N25_25  and  C26_26
REMARK   10  A    between atoms: C30_30  and  N31_31
REMARK   11  A    between atoms: C32_32  and  O34_34
REMARK   12  A    between atoms: O34_34  and  C35_35
REMARK                            x       y       z     vdW  Elec       q    Type
REMARK                         _______ _______ _______ _____ _____    ______ ____
ROOT
ATOM      1  C   UNL     1      -2.727  22.980 -24.839  0.00  0.00    +0.110 A 
ATOM      2  C   UNL     1      -1.438  22.943 -24.337  0.00  0.00    -0.040 A 
ATOM      3  C   UNL     1      -1.055  23.847 -23.345  0.00  0.00    -0.050 A 
ATOM      4  C   UNL     1      -1.973  24.782 -22.867  0.00  0.00    +0.050 A 
ATOM      5  C   UNL     1      -3.257  24.810 -23.375  0.00  0.00    +0.020 A 
ATOM      6  C   UNL     1      -3.634  23.917 -24.361  0.00  0.00    -0.100 A 
ENDROOT
BRANCH   3   7
ATOM      7  C   UNL     1       0.321  23.815 -22.804  0.00  0.00    +0.560 C 
ATOM      8  N   UNL     1       0.922  22.634 -22.558  0.00  0.00    -1.110 NA
ATOM      9  O   UNL     1       0.910  24.855 -22.580  0.00  0.00    -0.630 OA
BRANCH   8  10
ATOM     10  S   UNL     1       2.462  22.598 -21.952  0.00  0.00    +2.640 S 
ATOM     11  O   UNL     1       2.377  23.064 -20.612  0.00  0.00    -1.020 OA
ATOM     12  O   UNL     1       3.293  23.202 -22.933  0.00  0.00    -1.020 OA
BRANCH  10  13
ATOM     13  C   UNL     1       2.948  20.907 -21.861  0.00  0.00    -0.630 A 
ATOM     14  C   UNL     1       2.615  20.151 -20.752  0.00  0.00    +0.110 A 
ATOM     15  C   UNL     1       2.996  18.824 -20.680  0.00  0.00    -0.040 A 
ATOM     16  C   UNL     1       3.710  18.253 -21.718  0.00  0.00    +0.040 A 
ATOM     17  C   UNL     1       4.041  19.009 -22.827  0.00  0.00    -0.030 A 
ATOM     18  C   UNL     1       3.656  20.334 -22.900  0.00  0.00    +0.020 A 
ATOM     19  C   UNL     1       4.018  21.158 -24.109  0.00  0.00    +0.100 C 
ENDBRANCH  10  13
ENDBRANCH   8  10
ENDBRANCH   3   7
BRANCH   1  21
ATOM     20  C   UNL     1      -2.129  21.149 -26.233  0.00  0.00    +0.220 C 
ATOM     21  O   UNL     1      -3.105  22.101 -25.805  0.00  0.00    -0.320 OA
ENDBRANCH   1  21
BRANCH   6  22
ATOM     22  C   UNL     1      -5.036  23.954 -24.910  0.00  0.00    +0.170 C 
BRANCH  22  23
ATOM     23  C   UNL     1      -6.003  23.492 -23.851  0.00  0.00    -0.150 A 
ATOM     24  C   UNL     1      -6.733  24.275 -23.041  0.00  0.00    +0.230 A 
ATOM     25  N   UNL     1      -7.497  23.503 -22.209  0.00  0.00    -0.490 N 
ATOM     26  C   UNL     1      -7.269  22.168 -22.469  0.00  0.00    +0.090 A 
ATOM     27  C   UNL     1      -7.773  20.991 -21.926  0.00  0.00    +0.010 A 
ATOM     28  C   UNL     1      -7.345  19.773 -22.406  0.00  0.00    +0.010 A 
ATOM     29  C   UNL     1      -6.408  19.706 -23.437  0.00  0.00    +0.120 A 
ATOM     30  C   UNL     1      -5.897  20.865 -23.990  0.00  0.00    +0.080 A 
ATOM     31  C   UNL     1      -8.417  24.017 -21.191  0.00  0.00    +0.310 C 
ATOM     32  C   UNL     1      -6.329  22.105 -23.514  0.00  0.00    -0.080 A 
BRANCH  29  33
ATOM     33  N   UNL     1      -5.984  18.458 -23.914  0.00  0.00    -0.650 N 
ATOM     34  H   UNL     1      -5.360  17.926 -23.395  0.00  0.00    +0.410 HD
ATOM     35  C   UNL     1      -6.444  17.996 -25.094  0.00  0.00    +0.650 C 
ATOM     36  O   UNL     1      -7.149  18.700 -25.789  0.00  0.00    -0.550 OA
BRANCH  35  37
ATOM     37  O   UNL     1      -6.122  16.754 -25.502  0.00  0.00    -0.360 OA
BRANCH  37  38
ATOM     38  C   UNL     1      -4.886  16.604 -26.248  0.00  0.00    +0.200 C 
ATOM     39  C   UNL     1      -4.047  17.903 -26.174  0.00  0.00    +0.010 C 
ATOM     40  C   UNL     1      -2.609  17.399 -26.451  0.00  0.00    +0.020 C 
ATOM     41  C   UNL     1      -2.539  16.040 -25.723  0.00  0.00    +0.020 C 
ATOM     42  C   UNL     1      -3.987  15.535 -25.595  0.00  0.00    +0.040 C 
ENDBRANCH  37  38
ENDBRANCH  35  37
ENDBRANCH  29  33
ENDBRANCH  22  23
ENDBRANCH   6  22
TORSDOF 9
ENDMDL
MODEL 6
REMARK VINA RESULT:      -7.0     10.605     15.267
REMARK  Name = ZINC000000896717
REMARK  12 active torsions:
REMARK  status: ('A' for Active; 'I' for Inactive)
REMARK    1  A    between atoms: C1_1  and  O2_2
REMARK    2  A    between atoms: O2_2  and  C3_3
REMARK    3  A    between atoms: C5_5  and  C6_6
REMARK    4  A    between atoms: N8_8  and  S9_9
REMARK    5  A    between atoms: S9_9  and  C12_12
REMARK    6  A    between atoms: C17_17  and  C18_18
REMARK    7  A    between atoms: C21_21  and  C22_22
REMARK    8  A    between atoms: C22_22  and  C23_23
REMARK    9  A    between atoms: N25_25  and  C26_26
REMARK   10  A    between atoms: C30_30  and  N31_31
REMARK   11  A    between atoms: C32_32  and  O34_34
REMARK   12  A    between atoms: O34_34  and  C35_35
REMARK                            x       y       z     vdW  Elec       q    Type
REMARK                         _______ _______ _______ _____ _____    ______ ____
ROOT
ATOM      1  C   UNL     1      -6.141   9.779 -41.548  0.00  0.00    +0.110 A 
ATOM      2  C   UNL     1      -5.990   8.500 -42.057  0.00  0.00    -0.040 A 
ATOM      3  C   UNL     1      -5.006   7.659 -41.535  0.00  0.00    -0.050 A 
ATOM      4  C   UNL     1      -4.181   8.112 -40.505  0.00  0.00    +0.050 A 
ATOM      5  C   UNL     1      -4.341   9.389 -40.005  0.00  0.00    +0.020 A 
ATOM      6  C   UNL     1      -5.312  10.223 -40.526  0.00  0.00    -0.100 A 
ENDROOT
BRANCH   3   7
ATOM      7  C   UNL     1      -4.837   6.292 -42.074  0.00  0.00    +0.560 C 
ATOM      8  N   UNL     1      -5.906   5.479 -42.195  0.00  0.00    -1.110 NA
ATOM      9  O   UNL     1      -3.735   5.902 -42.406  0.00  0.00    -0.630 OA
BRANCH   8  10
ATOM     10  S   UNL     1      -5.716   3.948 -42.798  0.00  0.00    +2.640 S 
ATOM     11  O   UNL     1      -4.700   3.333 -42.020  0.00  0.00    -1.020 OA
ATOM     12  O   UNL     1      -5.640   4.080 -44.211  0.00  0.00    -1.020 OA
BRANCH  10  13
ATOM     13  C   UNL     1      -7.204   3.067 -42.460  0.00  0.00    -0.630 A 
ATOM     14  C   UNL     1      -8.222   3.676 -41.749  0.00  0.00    +0.110 A 
ATOM     15  C   UNL     1      -9.389   2.985 -41.484  0.00  0.00    -0.040 A 
ATOM     16  C   UNL     1      -9.539   1.685 -41.929  0.00  0.00    +0.040 A 
ATOM     17  C   UNL     1      -8.522   1.076 -42.640  0.00  0.00    -0.030 A 
ATOM     18  C   UNL     1      -7.356   1.769 -42.910  0.00  0.00    +0.020 A 
ATOM     19  C   UNL     1      -6.247   1.105 -43.685  0.00  0.00    +0.100 C 
ENDBRANCH  10  13
ENDBRANCH   8  10
ENDBRANCH   3   7
BRANCH   1  21
ATOM     20  C   UNL     1      -8.379  10.024 -42.311  0.00  0.00    +0.220 C 
ATOM     21  O   UNL     1      -7.098  10.601 -42.052  0.00  0.00    -0.320 OA
ENDBRANCH   1  21
BRANCH   6  22
ATOM     22  C   UNL     1      -5.480  11.616 -39.975  0.00  0.00    +0.170 C 
BRANCH  22  23
ATOM     23  C   UNL     1      -4.311  12.467 -40.396  0.00  0.00    -0.150 A 
ATOM     24  C   UNL     1      -4.020  12.862 -41.646  0.00  0.00    +0.230 A 
ATOM     25  N   UNL     1      -2.884  13.624 -41.642  0.00  0.00    -0.490 N 
ATOM     26  C   UNL     1      -2.403  13.741 -40.356  0.00  0.00    +0.090 A 
ATOM     27  C   UNL     1      -1.304  14.390 -39.803  0.00  0.00    +0.010 A 
ATOM     28  C   UNL     1      -1.076  14.325 -38.447  0.00  0.00    +0.010 A 
ATOM     29  C   UNL     1      -1.939  13.613 -37.615  0.00  0.00    +0.120 A 
ATOM     30  C   UNL     1      -3.038  12.962 -38.146  0.00  0.00    +0.080 A 
ATOM     31  C   UNL     1      -2.270  14.226 -42.829  0.00  0.00    +0.310 C 
ATOM     32  C   UNL     1      -3.280  13.026 -39.519  0.00  0.00    -0.080 A 
BRANCH  29  33
ATOM     33  N   UNL     1      -1.692  13.557 -36.236  0.00  0.00    -0.650 N 
ATOM     34  H   UNL     1      -2.085  14.217 -35.646  0.00  0.00    +0.410 HD
ATOM     35  C   UNL     1      -0.908  12.583 -35.731  0.00  0.00    +0.650 C 
ATOM     36  O   UNL     1      -0.338  11.813 -36.478  0.00  0.00    -0.550 OA
BRANCH  35  37
ATOM     37  O   UNL     1      -0.757  12.464 -34.399  0.00  0.00    -0.360 OA
BRANCH  37  38
ATOM     38  C   UNL     1       0.602  12.425 -33.890  0.00  0.00    +0.200 C 
ATOM     39  C   UNL     1       1.305  13.785 -34.117  0.00  0.00    +0.010 C 
ATOM     40  C   UNL     1       2.416  13.780 -33.038  0.00  0.00    +0.020 C 
ATOM     41  C   UNL     1       1.753  13.113 -31.815  0.00  0.00    +0.020 C 
ATOM     42  C   UNL     1       0.599  12.250 -32.357  0.00  0.00    +0.040 C 
ENDBRANCH  37  38
ENDBRANCH  35  37
ENDBRANCH  29  33
ENDBRANCH  22  23
ENDBRANCH   6  22
TORSDOF 9
ENDMDL
MODEL 7
REMARK VINA RESULT:      -7.0      2.267      4.704
REMARK  Name = ZINC000000896717
REMARK  12 active torsions:
REMARK  status: ('A' for Active; 'I' for Inactive)
REMARK    1  A    between atoms: C1_1  and  O2_2
REMARK    2  A    between atoms: O2_2  and  C3_3
REMARK    3  A    between atoms: C5_5  and  C6_6
REMARK    4  A    between atoms: N8_8  and  S9_9
REMARK    5  A    between atoms: S9_9  and  C12_12
REMARK    6  A    between atoms: C17_17  and  C18_18
REMARK    7  A    between atoms: C21_21  and  C22_22
REMARK    8  A    between atoms: C22_22  and  C23_23
REMARK    9  A    between atoms: N25_25  and  C26_26
REMARK   10  A    between atoms: C30_30  and  N31_31
REMARK   11  A    between atoms: C32_32  and  O34_34
REMARK   12  A    between atoms: O34_34  and  C35_35
REMARK                            x       y       z     vdW  Elec       q    Type
REMARK                         _______ _______ _______ _____ _____    ______ ____
ROOT
ATOM      1  C   UNL     1      -5.162  18.804 -31.178  0.00  0.00    +0.110 A 
ATOM      2  C   UNL     1      -4.517  17.762 -31.822  0.00  0.00    -0.040 A 
ATOM      3  C   UNL     1      -4.874  16.444 -31.535  0.00  0.00    -0.050 A 
ATOM      4  C   UNL     1      -5.878  16.185 -30.601  0.00  0.00    +0.050 A 
ATOM      5  C   UNL     1      -6.514  17.232 -29.965  0.00  0.00    +0.020 A 
ATOM      6  C   UNL     1      -6.156  18.538 -30.246  0.00  0.00    -0.100 A 
ENDROOT
BRANCH   3   7
ATOM      7  C   UNL     1      -4.189  15.325 -32.218  0.00  0.00    +0.560 C 
ATOM      8  N   UNL     1      -2.860  15.378 -32.433  0.00  0.00    -1.110 NA
ATOM      9  O   UNL     1      -4.826  14.357 -32.586  0.00  0.00    -0.630 OA
BRANCH   8  10
ATOM     10  S   UNL     1      -2.094  14.125 -33.197  0.00  0.00    +2.640 S 
ATOM     11  O   UNL     1      -2.201  14.379 -34.591  0.00  0.00    -1.020 OA
ATOM     12  O   UNL     1      -2.567  12.933 -32.586  0.00  0.00    -1.020 OA
BRANCH  10  13
ATOM     13  C   UNL     1      -0.381  14.242 -32.801  0.00  0.00    -0.630 A 
ATOM     14  C   UNL     1       0.051  15.161 -31.862  0.00  0.00    +0.110 A 
ATOM     15  C   UNL     1       1.394  15.252 -31.551  0.00  0.00    -0.040 A 
ATOM     16  C   UNL     1       2.307  14.425 -32.179  0.00  0.00    +0.040 A 
ATOM     17  C   UNL     1       1.876  13.506 -33.118  0.00  0.00    -0.030 A 
ATOM     18  C   UNL     1       0.531  13.412 -33.425  0.00  0.00    +0.020 A 
ATOM     19  C   UNL     1       0.061  12.410 -34.449  0.00  0.00    +0.100 C 
ENDBRANCH  10  13
ENDBRANCH   8  10
ENDBRANCH   3   7
BRANCH   1  21
ATOM     20  C   UNL     1      -5.044  20.549 -32.788  0.00  0.00    +0.220 C 
ATOM     21  O   UNL     1      -4.817  20.090 -31.455  0.00  0.00    -0.320 OA
ENDBRANCH   1  21
BRANCH   6  22
ATOM     22  C   UNL     1      -6.856  19.675 -29.548  0.00  0.00    +0.170 C 
BRANCH  22  23
ATOM     23  C   UNL     1      -6.544  19.628 -28.075  0.00  0.00    -0.150 A 
ATOM     24  C   UNL     1      -7.424  19.753 -27.068  0.00  0.00    +0.230 A 
ATOM     25  N   UNL     1      -6.776  19.657 -25.867  0.00  0.00    -0.490 N 
ATOM     26  C   UNL     1      -5.427  19.463 -26.077  0.00  0.00    +0.090 A 
ATOM     27  C   UNL     1      -4.342  19.304 -25.222  0.00  0.00    +0.010 A 
ATOM     28  C   UNL     1      -3.079  19.122 -25.739  0.00  0.00    +0.010 A 
ATOM     29  C   UNL     1      -2.873  19.095 -27.118  0.00  0.00    +0.120 A 
ATOM     30  C   UNL     1      -3.940  19.250 -27.984  0.00  0.00    +0.080 A 
ATOM     31  C   UNL     1      -7.419  19.749 -24.554  0.00  0.00    +0.310 C 
ATOM     32  C   UNL     1      -5.225  19.429 -27.469  0.00  0.00    -0.080 A 
BRANCH  29  33
ATOM     33  N   UNL     1      -1.581  18.909 -27.628  0.00  0.00    -0.650 N 
ATOM     34  H   UNL     1      -0.960  19.653 -27.661  0.00  0.00    +0.410 HD
ATOM     35  C   UNL     1      -1.200  17.694 -28.071  0.00  0.00    +0.650 C 
ATOM     36  O   UNL     1      -2.005  16.785 -28.119  0.00  0.00    -0.550 OA
BRANCH  35  37
ATOM     37  O   UNL     1       0.072  17.488 -28.460  0.00  0.00    -0.360 OA
BRANCH  37  38
ATOM     38  C   UNL     1       0.733  18.577 -29.158  0.00  0.00    +0.200 C 
ATOM     39  C   UNL     1       2.254  18.308 -29.266  0.00  0.00    +0.010 C 
ATOM     40  C   UNL     1       2.667  19.166 -30.487  0.00  0.00    +0.020 C 
ATOM     41  C   UNL     1       1.486  19.021 -31.469  0.00  0.00    +0.020 C 
ATOM     42  C   UNL     1       0.256  18.647 -30.623  0.00  0.00    +0.040 C 
ENDBRANCH  37  38
ENDBRANCH  35  37
ENDBRANCH  29  33
ENDBRANCH  22  23
ENDBRANCH   6  22
TORSDOF 9
ENDMDL
MODEL 8
REMARK VINA RESULT:      -7.0     18.882     20.872
REMARK  Name = ZINC000000896717
REMARK  12 active torsions:
REMARK  status: ('A' for Active; 'I' for Inactive)
REMARK    1  A    between atoms: C1_1  and  O2_2
REMARK    2  A    between atoms: O2_2  and  C3_3
REMARK    3  A    between atoms: C5_5  and  C6_6
REMARK    4  A    between atoms: N8_8  and  S9_9
REMARK    5  A    between atoms: S9_9  and  C12_12
REMARK    6  A    between atoms: C17_17  and  C18_18
REMARK    7  A    between atoms: C21_21  and  C22_22
REMARK    8  A    between atoms: C22_22  and  C23_23
REMARK    9  A    between atoms: N25_25  and  C26_26
REMARK   10  A    between atoms: C30_30  and  N31_31
REMARK   11  A    between atoms: C32_32  and  O34_34
REMARK   12  A    between atoms: O34_34  and  C35_35
REMARK                            x       y       z     vdW  Elec       q    Type
REMARK                         _______ _______ _______ _____ _____    ______ ____
ROOT
ATOM      1  C   UNL     1       1.991  -3.092 -27.360  0.00  0.00    +0.110 A 
ATOM      2  C   UNL     1       2.273  -3.063 -28.715  0.00  0.00    -0.040 A 
ATOM      3  C   UNL     1       1.701  -2.077 -29.520  0.00  0.00    -0.050 A 
ATOM      4  C   UNL     1       0.849  -1.128 -28.955  0.00  0.00    +0.050 A 
ATOM      5  C   UNL     1       0.575  -1.167 -27.602  0.00  0.00    +0.020 A 
ATOM      6  C   UNL     1       1.138  -2.147 -26.806  0.00  0.00    -0.100 A 
ENDROOT
BRANCH   3   7
ATOM      7  C   UNL     1       1.997  -2.040 -30.969  0.00  0.00    +0.560 C 
ATOM      8  N   UNL     1       3.199  -2.446 -31.422  0.00  0.00    -1.110 NA
ATOM      9  O   UNL     1       1.155  -1.642 -31.750  0.00  0.00    -0.630 OA
BRANCH   8  10
ATOM     10  S   UNL     1       3.530  -2.404 -33.044  0.00  0.00    +2.640 S 
ATOM     11  O   UNL     1       3.429  -1.043 -33.439  0.00  0.00    -1.020 OA
ATOM     12  O   UNL     1       2.764  -3.444 -33.637  0.00  0.00    -1.020 OA
BRANCH  10  13
ATOM     13  C   UNL     1       5.221  -2.856 -33.244  0.00  0.00    -0.630 A 
ATOM     14  C   UNL     1       6.084  -2.019 -33.927  0.00  0.00    +0.110 A 
ATOM     15  C   UNL     1       7.411  -2.373 -34.084  0.00  0.00    -0.040 A 
ATOM     16  C   UNL     1       7.875  -3.564 -33.557  0.00  0.00    +0.040 A 
ATOM     17  C   UNL     1       7.013  -4.401 -32.873  0.00  0.00    -0.030 A 
ATOM     18  C   UNL     1       5.687  -4.044 -32.712  0.00  0.00    +0.020 A 
ATOM     19  C   UNL     1       4.746  -4.956 -31.967  0.00  0.00    +0.100 C 
ENDBRANCH  10  13
ENDBRANCH   8  10
ENDBRANCH   3   7
BRANCH   1  21
ATOM     20  C   UNL     1       3.498  -4.923 -27.183  0.00  0.00    +0.220 C 
ATOM     21  O   UNL     1       2.546  -4.050 -26.571  0.00  0.00    -0.320 OA
ENDBRANCH   1  21
BRANCH   6  22
ATOM     22  C   UNL     1       0.834  -2.182 -25.331  0.00  0.00    +0.170 C 
BRANCH  22  23
ATOM     23  C   UNL     1      -0.625  -2.496 -25.126  0.00  0.00    -0.150 A 
ATOM     24  C   UNL     1      -1.355  -3.385 -25.820  0.00  0.00    +0.230 A 
ATOM     25  N   UNL     1      -2.641  -3.399 -25.352  0.00  0.00    -0.490 N 
ATOM     26  C   UNL     1      -2.773  -2.496 -24.318  0.00  0.00    +0.090 A 
ATOM     27  C   UNL     1      -3.840  -2.122 -23.509  0.00  0.00    +0.010 A 
ATOM     28  C   UNL     1      -3.663  -1.166 -22.534  0.00  0.00    +0.010 A 
ATOM     29  C   UNL     1      -2.419  -0.565 -22.347  0.00  0.00    +0.120 A 
ATOM     30  C   UNL     1      -1.346  -0.925 -23.141  0.00  0.00    +0.080 A 
ATOM     31  C   UNL     1      -3.717  -4.247 -25.872  0.00  0.00    +0.310 C 
ATOM     32  C   UNL     1      -1.514  -1.897 -24.129  0.00  0.00    -0.080 A 
BRANCH  29  33
ATOM     33  N   UNL     1      -2.256   0.407 -21.349  0.00  0.00    -0.650 N 
ATOM     34  H   UNL     1      -2.227   1.346 -21.587  0.00  0.00    +0.410 HD
ATOM     35  C   UNL     1      -2.141   0.034 -20.059  0.00  0.00    +0.650 C 
ATOM     36  O   UNL     1      -2.082  -1.145 -19.769  0.00  0.00    -0.550 OA
BRANCH  35  37
ATOM     37  O   UNL     1      -2.093   0.968 -19.090  0.00  0.00    -0.360 OA
BRANCH  37  38
ATOM     38  C   UNL     1      -1.696   0.525 -17.766  0.00  0.00    +0.200 C 
ATOM     39  C   UNL     1      -0.156   0.565 -17.618  0.00  0.00    +0.010 C 
ATOM     40  C   UNL     1       0.039   0.673 -16.086  0.00  0.00    +0.020 C 
ATOM     41  C   UNL     1      -1.102   1.604 -15.625  0.00  0.00    +0.020 C 
ATOM     42  C   UNL     1      -2.205   1.509 -16.693  0.00  0.00    +0.040 C 
ENDBRANCH  37  38
ENDBRANCH  35  37
ENDBRANCH  29  33
ENDBRANCH  22  23
ENDBRANCH   6  22
TORSDOF 9
ENDMDL
MODEL 9
REMARK VINA RESULT:      -7.0     29.238     31.376
REMARK  Name = ZINC000000896717
REMARK  12 active torsions:
REMARK  status: ('A' for Active; 'I' for Inactive)
REMARK    1  A    between atoms: C1_1  and  O2_2
REMARK    2  A    between atoms: O2_2  and  C3_3
REMARK    3  A    between atoms: C5_5  and  C6_6
REMARK    4  A    between atoms: N8_8  and  S9_9
REMARK    5  A    between atoms: S9_9  and  C12_12
REMARK    6  A    between atoms: C17_17  and  C18_18
REMARK    7  A    between atoms: C21_21  and  C22_22
REMARK    8  A    between atoms: C22_22  and  C23_23
REMARK    9  A    between atoms: N25_25  and  C26_26
REMARK   10  A    between atoms: C30_30  and  N31_31
REMARK   11  A    between atoms: C32_32  and  O34_34
REMARK   12  A    between atoms: O34_34  and  C35_35
REMARK                            x       y       z     vdW  Elec       q    Type
REMARK                         _______ _______ _______ _____ _____    ______ ____
ROOT
ATOM      1  C   UNL     1     -22.716  -4.638 -28.282  0.00  0.00    +0.110 A 
ATOM      2  C   UNL     1     -22.256  -5.427 -29.322  0.00  0.00    -0.040 A 
ATOM      3  C   UNL     1     -21.779  -6.712 -29.059  0.00  0.00    -0.050 A 
ATOM      4  C   UNL     1     -21.768  -7.193 -27.749  0.00  0.00    +0.050 A 
ATOM      5  C   UNL     1     -22.229  -6.397 -26.719  0.00  0.00    +0.020 A 
ATOM      6  C   UNL     1     -22.696  -5.122 -26.980  0.00  0.00    -0.100 A 
ENDROOT
BRANCH   3   7
ATOM      7  C   UNL     1     -21.286  -7.561 -30.165  0.00  0.00    +0.560 C 
ATOM      8  N   UNL     1     -20.976  -7.006 -31.354  0.00  0.00    -1.110 NA
ATOM      9  O   UNL     1     -21.160  -8.759 -30.001  0.00  0.00    -0.630 OA
BRANCH   8  10
ATOM     10  S   UNL     1     -20.423  -7.957 -32.592  0.00  0.00    +2.640 S 
ATOM     11  O   UNL     1     -21.554  -8.651 -33.100  0.00  0.00    -1.020 OA
ATOM     12  O   UNL     1     -19.262  -8.615 -32.105  0.00  0.00    -1.020 OA
BRANCH  10  13
ATOM     13  C   UNL     1     -19.882  -6.879 -33.876  0.00  0.00    -0.630 A 
ATOM     14  C   UNL     1     -19.910  -5.509 -33.686  0.00  0.00    +0.110 A 
ATOM     15  C   UNL     1     -19.485  -4.663 -34.693  0.00  0.00    -0.040 A 
ATOM     16  C   UNL     1     -19.034  -5.186 -35.891  0.00  0.00    +0.040 A 
ATOM     17  C   UNL     1     -19.006  -6.555 -36.081  0.00  0.00    -0.030 A 
ATOM     18  C   UNL     1     -19.426  -7.401 -35.071  0.00  0.00    +0.020 A 
ATOM     19  C   UNL     1     -19.396  -8.894 -35.278  0.00  0.00    +0.100 C 
ENDBRANCH  10  13
ENDBRANCH   8  10
ENDBRANCH   3   7
BRANCH   1  21
ATOM     20  C   UNL     1     -22.964  -2.865 -29.846  0.00  0.00    +0.220 C 
ATOM     21  O   UNL     1     -23.182  -3.386 -28.534  0.00  0.00    -0.320 OA
ENDBRANCH   1  21
BRANCH   6  22
ATOM     22  C   UNL     1     -23.198  -4.260 -25.851  0.00  0.00    +0.170 C 
BRANCH  22  23
ATOM     23  C   UNL     1     -24.646  -4.575 -25.583  0.00  0.00    -0.150 A 
ATOM     24  C   UNL     1     -25.614  -4.724 -26.503  0.00  0.00    +0.230 A 
ATOM     25  N   UNL     1     -26.803  -5.005 -25.888  0.00  0.00    -0.490 N 
ATOM     26  C   UNL     1     -26.626  -5.044 -24.521  0.00  0.00    +0.090 A 
ATOM     27  C   UNL     1     -27.485  -5.282 -23.454  0.00  0.00    +0.010 A 
ATOM     28  C   UNL     1     -27.005  -5.254 -22.164  0.00  0.00    +0.010 A 
ATOM     29  C   UNL     1     -25.659  -4.989 -21.913  0.00  0.00    +0.120 A 
ATOM     30  C   UNL     1     -24.789  -4.751 -22.961  0.00  0.00    +0.080 A 
ATOM     31  C   UNL     1     -28.075  -5.230 -26.578  0.00  0.00    +0.310 C 
ATOM     32  C   UNL     1     -25.265  -4.783 -24.273  0.00  0.00    -0.080 A 
BRANCH  29  33
ATOM     33  N   UNL     1     -25.187  -4.964 -20.593  0.00  0.00    -0.650 N 
ATOM     34  H   UNL     1     -24.966  -4.119 -20.172  0.00  0.00    +0.410 HD
ATOM     35  C   UNL     1     -25.041  -6.116 -19.908  0.00  0.00    +0.650 C 
ATOM     36  O   UNL     1     -25.226  -7.181 -20.464  0.00  0.00    -0.550 OA
BRANCH  35  37
ATOM     37  O   UNL     1     -24.691  -6.087 -18.609  0.00  0.00    -0.360 OA
BRANCH  37  38
ATOM     38  C   UNL     1     -23.284  -6.272 -18.300  0.00  0.00    +0.200 C 
ATOM     39  C   UNL     1     -22.848  -5.317 -17.163  0.00  0.00    +0.010 C 
ATOM     40  C   UNL     1     -21.608  -6.031 -16.572  0.00  0.00    +0.020 C 
ATOM     41  C   UNL     1     -21.973  -7.529 -16.626  0.00  0.00    +0.020 C 
ATOM     42  C   UNL     1     -23.039  -7.682 -17.725  0.00  0.00    +0.040 C 
ENDBRANCH  37  38
ENDBRANCH  35  37
ENDBRANCH  29  33
ENDBRANCH  22  23
ENDBRANCH   6  22
TORSDOF 9
ENDMDL
