REMARK  Name = ZINC000000896717
REMARK  12 active torsions:
REMARK  status: ('A' for Active; 'I' for Inactive)
REMARK    1  A    between atoms: C1_1  and  O2_2
REMARK    2  A    between atoms: O2_2  and  C3_3
REMARK    3  A    between atoms: C5_5  and  C6_6
REMARK    4  A    between atoms: N8_8  and  S9_9
REMARK    5  A    between atoms: S9_9  and  C12_12
REMARK    6  A    between atoms: C17_17  and  C18_18
REMARK    7  A    between atoms: C21_21  and  C22_22
REMARK    8  A    between atoms: C22_22  and  C23_23
REMARK    9  A    between atoms: N25_25  and  C26_26
REMARK   10  A    between atoms: C30_30  and  N31_31
REMARK   11  A    between atoms: C32_32  and  O34_34
REMARK   12  A    between atoms: O34_34  and  C35_35
REMARK                            x       y       z     vdW  Elec       q    Type
REMARK                         _______ _______ _______ _____ _____    ______ ____
ROOT
ATOM      1  C   UNL     1      -1.618  -0.342   0.576  0.00  0.00    +0.110 A 
ATOM      2  C   UNL     1      -2.783   0.375   0.789  0.00  0.00    -0.040 A 
ATOM      3  C   UNL     1      -4.003  -0.296   0.877  0.00  0.00    -0.050 A 
ATOM      4  C   UNL     1      -4.042  -1.685   0.749  0.00  0.00    +0.050 A 
ATOM      5  C   UNL     1      -2.874  -2.390   0.536  0.00  0.00    +0.020 A 
ATOM      6  C   UNL     1      -1.666  -1.724   0.444  0.00  0.00    -0.100 A 
ENDROOT
BRANCH   3   7
ATOM      7  C   UNL     1      -5.252   0.463   1.104  0.00  0.00    +0.560 C 
ATOM      8  N   UNL     1      -6.430  -0.187   1.188  0.00  0.00    -1.110 NA
ATOM      9  O   UNL     1      -5.216   1.673   1.214  0.00  0.00    -0.630 OA
BRANCH   8  10
ATOM     10  S   UNL     1      -7.828   0.663   1.442  0.00  0.00    +2.640 S 
ATOM     11  O   UNL     1      -8.036   1.451   0.278  0.00  0.00    -1.020 OA
ATOM     12  O   UNL     1      -7.730   1.216   2.747  0.00  0.00    -1.020 OA
BRANCH  10  13
ATOM     13  C   UNL     1      -9.146  -0.505   1.494  0.00  0.00    -0.630 A 
ATOM     14  C   UNL     1      -9.864  -0.686   2.662  0.00  0.00    +0.110 A 
ATOM     15  C   UNL     1     -10.898  -1.602   2.703  0.00  0.00    -0.040 A 
ATOM     16  C   UNL     1     -11.214  -2.338   1.576  0.00  0.00    +0.040 A 
ATOM     17  C   UNL     1     -10.497  -2.157   0.408  0.00  0.00    -0.030 A 
ATOM     18  C   UNL     1      -9.466  -1.237   0.366  0.00  0.00    +0.020 A 
ATOM     19  C   UNL     1      -8.684  -1.040  -0.907  0.00  0.00    +0.100 C 
ENDBRANCH  10  13
ENDBRANCH   8  10
ENDBRANCH   3   7
BRANCH   1  21
ATOM     20  C   UNL     1      -0.451   1.728   0.635  0.00  0.00    +0.220 C 
ATOM     21  O   UNL     1      -0.427   0.307   0.490  0.00  0.00    -0.320 OA
ENDBRANCH   1  21
BRANCH   6  22
ATOM     22  C   UNL     1      -0.396  -2.501   0.212  0.00  0.00    +0.170 C 
BRANCH  22  23
ATOM     23  C   UNL     1       0.269  -2.783   1.534  0.00  0.00    -0.150 A 
ATOM     24  C   UNL     1       1.236  -2.053   2.113  0.00  0.00    +0.230 A 
ATOM     25  N   UNL     1       1.593  -2.615   3.308  0.00  0.00    -0.490 N 
ATOM     26  C   UNL     1       0.845  -3.751   3.533  0.00  0.00    +0.090 A 
ATOM     27  C   UNL     1       0.806  -4.678   4.569  0.00  0.00    +0.010 A 
ATOM     28  C   UNL     1      -0.071  -5.738   4.512  0.00  0.00    +0.010 A 
ATOM     29  C   UNL     1      -0.926  -5.894   3.422  0.00  0.00    +0.120 A 
ATOM     30  C   UNL     1      -0.903  -4.982   2.383  0.00  0.00    +0.080 A 
ATOM     31  C   UNL     1       2.618  -2.089   4.213  0.00  0.00    +0.310 C 
ATOM     32  C   UNL     1      -0.021  -3.901   2.434  0.00  0.00    -0.080 A 
BRANCH  29  33
ATOM     33  N   UNL     1      -1.813  -6.979   3.380  0.00  0.00    -0.650 N 
ATOM     34  H   UNL     1      -2.200  -7.322   4.200  0.00  0.00    +0.410 HD
ATOM     35  C   UNL     1      -2.129  -7.545   2.198  0.00  0.00    +0.650 C 
ATOM     36  O   UNL     1      -1.573  -7.180   1.181  0.00  0.00    -0.550 OA
BRANCH  35  37
ATOM     37  O   UNL     1      -3.061  -8.515   2.144  0.00  0.00    -0.360 OA
BRANCH  37  38
ATOM     38  C   UNL     1      -3.350  -9.080   0.838  0.00  0.00    +0.200 C 
ATOM     39  C   UNL     1      -2.522 -10.368   0.609  0.00  0.00    +0.010 C 
ATOM     40  C   UNL     1      -3.353 -11.124  -0.457  0.00  0.00    +0.020 C 
ATOM     41  C   UNL     1      -4.818 -10.855  -0.055  0.00  0.00    +0.020 C 
ATOM     42  C   UNL     1      -4.816  -9.555   0.768  0.00  0.00    +0.040 C 
ENDBRANCH  37  38
ENDBRANCH  35  37
ENDBRANCH  29  33
ENDBRANCH  22  23
ENDBRANCH   6  22
TORSDOF 9
