@<TRIPOS>MOLECULE
ZINC000000896717
73    77    1     0     0
SMALL
USER_CHARGES
@<TRIPOS>ATOM
1      C1     -0.4506    1.7281    0.6349 C.3      1 ZINC000000896717    0.0300
2      O2     -0.4267    0.3067    0.4900 O.3      1 ZINC000000896717   -0.3200
3      C3     -1.6178   -0.3424    0.5759 C.ar     1 ZINC000000896717    0.1100
4      C4     -2.7828    0.3747    0.7891 C.ar     1 ZINC000000896717   -0.1700
5      C5     -4.0033   -0.2956    0.8766 C.ar     1 ZINC000000896717   -0.0500
6      C6     -5.2519    0.4631    1.1036 C.2      1 ZINC000000896717    0.5600
7      O7     -5.2162    1.6731    1.2143 O.2      1 ZINC000000896717   -0.6300
8      N8     -6.4296   -0.1868    1.1878 N.pl3    1 ZINC000000896717   -1.1100
9      S9     -7.8280    0.6630    1.4420 S.o2     1 ZINC000000896717    2.6400
10     O10    -7.7298    1.2158    2.7474 O.2      1 ZINC000000896717   -1.0200
11     O11    -8.0360    1.4509    0.2779 O.2      1 ZINC000000896717   -1.0200
12     C12    -9.1460   -0.5052    1.4943 C.ar     1 ZINC000000896717   -0.6300
13     C13    -9.8637   -0.6856    2.6616 C.ar     1 ZINC000000896717   -0.0300
14     C14   -10.8979   -1.6023    2.7026 C.ar     1 ZINC000000896717   -0.1600
15     C15   -11.2144   -2.3379    1.5761 C.ar     1 ZINC000000896717   -0.0800
16     C16   -10.4971   -2.1567    0.4081 C.ar     1 ZINC000000896717   -0.1500
17     C17    -9.4660   -1.2373    0.3659 C.ar     1 ZINC000000896717    0.0200
18     C18    -8.6842   -1.0399   -0.9072 C.3      1 ZINC000000896717   -0.1500
19     C19    -4.0415   -1.6849    0.7486 C.ar     1 ZINC000000896717   -0.0900
20     C20    -2.8742   -2.3899    0.5363 C.ar     1 ZINC000000896717   -0.1000
21     C21    -1.6663   -1.7238    0.4442 C.ar     1 ZINC000000896717   -0.1000
22     C22    -0.3963   -2.5009    0.2117 C.3      1 ZINC000000896717    0.0100
23     C23     0.2694   -2.7827    1.5341 C.2      1 ZINC000000896717   -0.1500
24     C24     1.2361   -2.0530    2.1127 C.2      1 ZINC000000896717    0.0600
25     N25     1.5931   -2.6150    3.3078 N.pl3    1 ZINC000000896717   -0.4900
26     C26     2.6179   -2.0887    4.2128 C.3      1 ZINC000000896717    0.0800
27     C27     0.8445   -3.7509    3.5334 C.ar     1 ZINC000000896717    0.0900
28     C28     0.8056   -4.6785    4.5690 C.ar     1 ZINC000000896717   -0.1100
29     C29    -0.0712   -5.7384    4.5116 C.ar     1 ZINC000000896717   -0.1200
30     C30    -0.9260   -5.8940    3.4221 C.ar     1 ZINC000000896717    0.1200
31     N31    -1.8131   -6.9786    3.3796 N.am     1 ZINC000000896717   -0.6500
32     C32    -2.1289   -7.5450    2.1981 C.2      1 ZINC000000896717    0.6500
33     O33    -1.5725   -7.1800    1.1813 O.2      1 ZINC000000896717   -0.5500
34     O34    -3.0611   -8.5152    2.1444 O.3      1 ZINC000000896717   -0.3600
35     C35    -3.3504   -9.0797    0.8383 C.3      1 ZINC000000896717    0.1000
36     C36    -2.5218  -10.3681    0.6089 C.3      1 ZINC000000896717   -0.1400
37     C37    -3.3531  -11.1238   -0.4573 C.3      1 ZINC000000896717   -0.1200
38     C38    -4.8180  -10.8549   -0.0554 C.3      1 ZINC000000896717   -0.1200
39     C39    -4.8163   -9.5553    0.7683 C.3      1 ZINC000000896717   -0.1200
40     C40    -0.9026   -4.9824    2.3833 C.ar     1 ZINC000000896717   -0.0600
41     C41    -0.0206   -3.9014    2.4345 C.ar     1 ZINC000000896717   -0.0800
42     H42     0.5628    2.1195    0.5457 H        1 ZINC000000896717    0.0900
43     H43    -1.0775    2.1622   -0.1439 H        1 ZINC000000896717    0.0500
44     H44    -0.8552    1.9869    1.6134 H        1 ZINC000000896717    0.0500
45     H45    -2.7468    1.4496    0.8876 H        1 ZINC000000896717    0.1300
46     H46    -9.6163   -0.1108    3.5418 H        1 ZINC000000896717    0.1400
47     H47   -11.4582   -1.7437    3.6150 H        1 ZINC000000896717    0.1200
48     H48   -12.0218   -3.0544    1.6083 H        1 ZINC000000896717    0.1200
49     H49   -10.7442   -2.7318   -0.4720 H        1 ZINC000000896717    0.1200
50     H50    -9.1578   -0.2632   -1.5077 H        1 ZINC000000896717    0.0800
51     H51    -7.6645   -0.7405   -0.6647 H        1 ZINC000000896717    0.1000
52     H52    -8.6647   -1.9731   -1.4701 H        1 ZINC000000896717    0.0700
53     H53    -4.9839   -2.2079    0.8160 H        1 ZINC000000896717    0.1400
54     H54    -2.9050   -3.4649    0.4378 H        1 ZINC000000896717    0.1200
55     H55    -0.6320   -3.4424   -0.2843 H        1 ZINC000000896717    0.0800
56     H56     0.2767   -1.9177   -0.4168 H        1 ZINC000000896717    0.0800
57     H57     1.6684   -1.1552    1.6962 H        1 ZINC000000896717    0.1700
58     H58     2.1593   -1.3930    4.9155 H        1 ZINC000000896717    0.0700
59     H59     3.0748   -2.9118    4.7622 H        1 ZINC000000896717    0.0800
60     H60     3.3819   -1.5697    3.6340 H        1 ZINC000000896717    0.0800
61     H61     1.4637   -4.5675    5.4181 H        1 ZINC000000896717    0.1200
62     H62    -0.0966   -6.4561    5.3183 H        1 ZINC000000896717    0.1300
63     H63    -2.1996   -7.3215    4.2005 H        1 ZINC000000896717    0.4100
64     H64    -3.1485   -8.3493    0.0548 H        1 ZINC000000896717    0.1000
65     H65    -1.5303  -10.1266    0.2259 H        1 ZINC000000896717    0.0700
66     H66    -2.4509  -10.9504    1.5276 H        1 ZINC000000896717    0.0800
67     H67    -3.1509  -10.7253   -1.4515 H        1 ZINC000000896717    0.0700
68     H68    -3.1378  -12.1918   -0.4224 H        1 ZINC000000896717    0.0700
69     H69    -5.4330  -10.7312   -0.9468 H        1 ZINC000000896717    0.0700
70     H70    -5.1968  -11.6794    0.5486 H        1 ZINC000000896717    0.0700
71     H71    -5.1943   -9.7490    1.7722 H        1 ZINC000000896717    0.0800
72     H72    -5.4305   -8.8008    0.2768 H        1 ZINC000000896717    0.0800
73     H73    -1.5653   -5.1035    1.5392 H        1 ZINC000000896717    0.1400
@<TRIPOS>BOND
1     1     2     1
2     1     42    1
3     1     43    1
4     1     44    1
5     2     3     1
6     3     21    ar
7     3     4     ar
8     4     5     ar
9     4     45    1
10    5     6     1
11    5     19    ar
12    6     7     2
13    6     8     1
14    8     9     1
15    9     10    2
16    9     11    2
17    9     12    1
18    12    17    ar
19    12    13    ar
20    13    14    ar
21    13    46    1
22    14    15    ar
23    14    47    1
24    15    16    ar
25    15    48    1
26    16    17    ar
27    16    49    1
28    17    18    1
29    18    50    1
30    18    51    1
31    18    52    1
32    19    20    ar
33    19    53    1
34    20    21    ar
35    20    54    1
36    21    22    1
37    22    23    1
38    22    55    1
39    22    56    1
40    23    41    1
41    23    24    2
42    24    25    1
43    24    57    1
44    25    26    1
45    25    27    1
46    26    58    1
47    26    59    1
48    26    60    1
49    27    41    ar
50    27    28    ar
51    28    29    ar
52    28    61    1
53    29    30    ar
54    29    62    1
55    30    31    1
56    30    40    ar
57    31    32    am
58    31    63    1
59    32    33    2
60    32    34    1
61    34    35    1
62    35    39    1
63    35    36    1
64    35    64    1
65    36    37    1
66    36    65    1
67    36    66    1
68    37    38    1
69    37    67    1
70    37    68    1
71    38    39    1
72    38    69    1
73    38    70    1
74    39    71    1
75    39    72    1
76    40    41    ar
77    40    73    1
@<TRIPOS>SUBSTRUCTURE
1   ZINC000000896717 1     RESIDUE    1   A     ZIN   1
