@<TRIPOS>MOLECULE
ZINC000014210455
 42 44 0 0 0
SMALL
GASTEIGER

@<TRIPOS>ATOM
      1  C         -0.7010   13.8750  -33.2140 C.2     1  UNL1        0.5500
      2  N         -0.9030   14.1620  -34.5150 N.am    1  UNL1       -0.6000
      3  C         -0.1740   15.1440  -35.3520 C.3     1  UNL1        0.3100
      4  C         -1.2660   15.7940  -36.2290 C.3     1  UNL1       -0.0300
      5  C         -2.4050   14.7540  -36.2830 C.3     1  UNL1       -0.0400
      6  C         -2.6040   16.1430  -35.5740 C.3     1  UNL1       -0.0700
      7  C         -3.4930   17.1710  -36.2760 C.3     1  UNL1        0.0700
      8  C         -2.6670   16.1520  -34.0460 C.3     1  UNL1        0.0600
      9  C         -1.8970   13.5630  -35.4340 C.3     1  UNL1        0.2600
     10  O         -1.3180   12.9720  -32.6900 O.2     1  UNL1       -0.5300
     11  C         -1.2540   12.5260  -36.3180 C.2     1  UNL1        0.5200
     12  N         -1.8110   12.2130  -37.5050 N.am    1  UNL1       -0.7100
     13  H         -2.6260   12.6550  -37.7890 H       1  UNL1        0.4100
     14  O         -0.2350   11.9730  -35.9620 O.2     1  UNL1       -0.5200
     15  C         -1.1860   11.2040  -38.3640 C.3     1  UNL1        0.2500
     16  C         -0.9710   11.7790  -39.7410 C.2     1  UNL1        0.3400
     17  O         -0.7840   11.0420  -40.6790 O.2     1  UNL1       -0.4100
     18  C         -0.9900   13.2550  -39.9430 C.2     1  UNL1        0.4800
     19  O         -0.2360   13.9640  -39.3100 O.2     1  UNL1       -0.5000
     20  N         -1.8440   13.8020  -40.8300 N.am    1  UNL1       -0.8300
     21  H         -1.8570   14.7630  -40.9620 H       1  UNL1        0.4100
     22  H         -2.4470   13.2360  -41.3370 H       1  UNL1        0.4100
     23  C         -2.0990    9.9800  -38.4600 C.3     1  UNL1        0.0700
     24  C         -1.2530    8.7070  -38.4230 C.3     1  UNL1       -0.0100
     25  C          0.0860    8.8780  -37.6840 C.3     1  UNL1        0.0100
     26  C         -0.1520    7.4800  -37.0900 C.3     1  UNL1        0.0100
     27  C         -1.6540    7.7310  -37.3030 C.3     1  UNL1        0.0100
     28  C          0.2910   14.6770  -32.4100 C.3     1  UNL1        0.2800
     29  N         -0.8530   16.7590  -29.6030 N.am    1  UNL1       -0.7400
     30  H         -1.2880   16.1010  -29.0390 H       1  UNL1        0.3900
     31  C         -0.2860   16.3810  -30.7660 C.2     1  UNL1        0.7100
     32  N         -0.3250   15.0880  -31.1450 N.am    1  UNL1       -0.7300
     33  H         -0.7600   14.4300  -30.5810 H       1  UNL1        0.4000
     34  O          0.2590   17.2060  -31.4740 O.2     1  UNL1       -0.5800
     35  C         -1.5580   19.0190  -30.2180 C.3     1  UNL1        0.0300
     36  C         -0.8100   18.1650  -29.1920 C.3     1  UNL1        0.1900
     37  C         -1.4760   18.3150  -27.8210 C.3     1  UNL1        0.0300
     38  C          0.6450   18.6280  -29.1050 C.3     1  UNL1        0.0300
     39  C          1.5250   13.8190  -32.1210 C.3     1  UNL1       -0.0700
     40  C          2.5010   13.9200  -33.2960 C.3     1  UNL1        0.0400
     41  C          1.1000   12.3620  -31.9350 C.3     1  UNL1        0.0400
     42  C          2.2070   14.3190  -30.8470 C.3     1  UNL1        0.0400
@<TRIPOS>BOND
     1    22    20    1
     2    21    20    1
     3    20    18   am
     4    17    16    2
     5    18    16    1
     6    18    19    2
     7    16    15    1
     8    23    24    1
     9    23    15    1
    10    24    25    1
    11    24    27    1
    12    15    12    1
    13    13    12    1
    14    25    26    1
    15    12    11   am
    16    27    26    1
    17    11    14    2
    18    11     9    1
    19     5     4    1
    20     5     6    1
    21     5     9    1
    22     7     6    1
    23     4     6    1
    24     4     3    1
    25     6     8    1
    26     9     2    1
    27     3     2    1
    28     2     1   am
    29    40    39    1
    30     1    10    2
    31     1    28    1
    32    28    39    1
    33    28    32    1
    34    39    41    1
    35    39    42    1
    36    34    31    2
    37    32    31   am
    38    32    33    1
    39    31    29   am
    40    35    36    1
    41    29    36    1
    42    29    30    1
    43    36    38    1
    44    36    37    1
