@<TRIPOS>MOLECULE
ZINC000014210455
82 84 1 0 0
SMALL
AMBER ff14SB


@<TRIPOS>ATOM
      1 C          -0.7010   13.8750  -33.2140 C.2       1 UNL1    0.0000
      2 N          -0.9030   14.1620  -34.5150 N.am      1 UNL1    0.0000
      3 C          -0.1740   15.1440  -35.3520 C.3       1 UNL1    0.0000
      4 C          -1.2660   15.7940  -36.2290 C.3       1 UNL1    0.0000
      5 C          -2.4050   14.7540  -36.2830 C.3       1 UNL1    0.0000
      6 C          -2.6040   16.1430  -35.5740 C.3       1 UNL1    0.0000
      7 C          -3.4930   17.1710  -36.2760 C.3       1 UNL1    0.0000
      8 C          -2.6670   16.1520  -34.0460 C.3       1 UNL1    0.0000
      9 C          -1.8970   13.5630  -35.4340 C.3       1 UNL1    0.0000
     10 O          -1.3180   12.9720  -32.6900 O.2       1 UNL1    0.0000
     11 C          -1.2540   12.5260  -36.3180 C.2       1 UNL1    0.0000
     12 N          -1.8110   12.2130  -37.5050 N.am      1 UNL1    0.0000
     13 H          -2.6260   12.6550  -37.7890 H         1 UNL1    0.0000
     14 O          -0.2350   11.9730  -35.9620 O.2       1 UNL1    0.0000
     15 C          -1.1860   11.2040  -38.3640 C.3       1 UNL1    0.0000
     16 C          -0.9710   11.7790  -39.7410 C.2       1 UNL1    0.0000
     17 O          -0.7840   11.0420  -40.6790 O.2       1 UNL1    0.0000
     18 C          -0.9900   13.2550  -39.9430 C.2       1 UNL1    0.0000
     19 O          -0.2360   13.9640  -39.3100 O.2       1 UNL1    0.0000
     20 N          -1.8440   13.8020  -40.8300 N.am      1 UNL1    0.0000
     21 H          -1.8570   14.7630  -40.9620 H         1 UNL1    0.0000
     22 H          -2.4470   13.2360  -41.3370 H         1 UNL1    0.0000
     23 C          -2.0990    9.9800  -38.4600 C.3       1 UNL1    0.0000
     24 C          -1.2530    8.7070  -38.4230 C.3       1 UNL1    0.0000
     25 C           0.0860    8.8780  -37.6840 C.3       1 UNL1    0.0000
     26 C          -0.1520    7.4800  -37.0900 C.3       1 UNL1    0.0000
     27 C          -1.6540    7.7310  -37.3030 C.3       1 UNL1    0.0000
     28 C           0.2910   14.6770  -32.4100 C.3       1 UNL1    0.0000
     29 N          -0.8530   16.7590  -29.6030 N.am      1 UNL1    0.0000
     30 H          -1.2880   16.1010  -29.0390 H         1 UNL1    0.0000
     31 C          -0.2860   16.3810  -30.7660 C.2       1 UNL1    0.0000
     32 N          -0.3250   15.0880  -31.1450 N.am      1 UNL1    0.0000
     33 H          -0.7600   14.4300  -30.5810 H         1 UNL1    0.0000
     34 O           0.2590   17.2060  -31.4740 O.2       1 UNL1    0.0000
     35 C          -1.5580   19.0190  -30.2180 C.3       1 UNL1    0.0000
     36 C          -0.8100   18.1650  -29.1920 C.3       1 UNL1    0.0000
     37 C          -1.4760   18.3150  -27.8210 C.3       1 UNL1    0.0000
     38 C           0.6450   18.6280  -29.1050 C.3       1 UNL1    0.0000
     39 C           1.5250   13.8190  -32.1210 C.3       1 UNL1    0.0000
     40 C           2.5010   13.9200  -33.2960 C.3       1 UNL1    0.0000
     41 C           1.1000   12.3620  -31.9350 C.3       1 UNL1    0.0000
     42 C           2.2070   14.3190  -30.8470 C.3       1 UNL1    0.0000
     43 HC2         0.3152   15.8926  -34.7289 H         1 UNL1    0.0000
     44 HC3         0.5597   14.6357  -35.9777 H         1 UNL1    0.0000
     45 HC         -0.9740   16.3083  -37.1446 H         1 UNL1    0.0000
     46 HC1        -2.9079   14.5598  -37.2304 H         1 UNL1    0.0000
     47 HC4        -2.7185   13.1226  -34.8689 H         1 UNL1    0.0000
     48 HC5        -0.2264   10.9092  -37.9394 H         1 UNL1    0.0000
     49 HC6        -2.7937    9.9786  -37.6200 H         1 UNL1    0.0000
     50 HC7        -2.6590   10.0169  -39.3944 H         1 UNL1    0.0000
     51 HC8        -1.1506    8.2282  -39.3968 H         1 UNL1    0.0000
     52 HC9         0.9583    8.9551  -38.3330 H         1 UNL1    0.0000
     53 HC10        0.0523    9.6653  -36.9310 H         1 UNL1    0.0000
     54 HC11        0.2608    6.6591  -37.6764 H         1 UNL1    0.0000
     55 HC12        0.1183    7.4202  -36.0357 H         1 UNL1    0.0000
     56 HC13       -2.1635    8.1924  -36.4571 H         1 UNL1    0.0000
     57 HC14       -2.1772    6.8520  -37.6796 H         1 UNL1    0.0000
     58 HC15        0.5868   15.5611  -32.9747 H         1 UNL1    0.0000
     59 HC16       -3.3726   17.0794  -37.3555 H         1 UNL1    0.0000
     60 HC17       -3.2050   18.1744  -35.9625 H         1 UNL1    0.0000
     61 HC18       -4.5348   16.9922  -36.0101 H         1 UNL1    0.0000
     62 HC19        1.1197   18.5215  -30.0804 H         1 UNL1    0.0000
     63 HC20        1.1768   18.0189  -28.3740 H         1 UNL1    0.0000
     64 HC21        0.6759   19.6734  -28.7981 H         1 UNL1    0.0000
     65 HC22        1.9525   11.7751  -31.5931 H         1 UNL1    0.0000
     66 HC23        0.3018   12.3083  -31.1946 H         1 UNL1    0.0000
     67 HC24        0.7422   11.9638  -32.8845 H         1 UNL1    0.0000
     68 HC25       -3.3589   16.9265  -33.7149 H         1 UNL1    0.0000
     69 HC26       -3.0122   15.1809  -33.6911 H         1 UNL1    0.0000
     70 HC27       -1.6748   16.3545  -33.6426 H         1 UNL1    0.0000
     71 HC28        3.2335   13.9538  -30.8165 H         1 UNL1    0.0000
     72 HC29        1.6645   13.9507  -29.9763 H         1 UNL1    0.0000
     73 HC30        2.2088   15.4090  -30.8397 H         1 UNL1    0.0000
     74 HC31       -2.5131   17.9852  -27.8822 H         1 UNL1    0.0000
     75 HC32       -1.4450   19.3606  -27.5148 H         1 UNL1    0.0000
     76 HC33       -0.9438   17.7064  -27.0900 H         1 UNL1    0.0000
     77 HC34        3.3806   13.3095  -33.0919 H         1 UNL1    0.0000
     78 HC35        2.8030   14.9589  -33.4289 H         1 UNL1    0.0000
     79 HC36        2.0144   13.5641  -34.2041 H         1 UNL1    0.0000
     80 HC37       -1.0847   18.9128  -31.1941 H         1 UNL1    0.0000
     81 HC38       -2.5947   18.6879  -30.2793 H         1 UNL1    0.0000
     82 HC39       -1.5280   20.0646  -29.9114 H         1 UNL1    0.0000
@<TRIPOS>BOND
     1   22   20 1
     2   21   20 1
     3   20   18 am
     4   17   16 2
     5   18   16 1
     6   18   19 2
     7   16   15 1
     8   23   24 1
     9   23   15 1
    10   24   25 1
    11   24   27 1
    12   15   12 1
    13   13   12 1
    14   25   26 1
    15   12   11 am
    16   27   26 1
    17   11   14 2
    18   11    9 1
    19    5    4 1
    20    5    6 1
    21    5    9 1
    22    7    6 1
    23    4    6 1
    24    4    3 1
    25    6    8 1
    26    9    2 1
    27    3    2 1
    28    2    1 am
    29   40   39 1
    30    1   10 2
    31    1   28 1
    32   28   39 1
    33   28   32 1
    34   39   41 1
    35   39   42 1
    36   34   31 2
    37   32   31 am
    38   32   33 1
    39   31   29 am
    40   35   36 1
    41   29   36 1
    42   29   30 1
    43   36   38 1
    44   36   37 1
    45   43    3 1
    46   44    3 1
    47   45    4 1
    48   46    5 1
    49   47    9 1
    50   48   15 1
    51   49   23 1
    52   50   23 1
    53   51   24 1
    54   52   25 1
    55   53   25 1
    56   54   26 1
    57   55   26 1
    58   56   27 1
    59   57   27 1
    60   58   28 1
    61   59    7 1
    62   60    7 1
    63   61    7 1
    64   62   38 1
    65   63   38 1
    66   64   38 1
    67   65   41 1
    68   66   41 1
    69   67   41 1
    70   68    8 1
    71   69    8 1
    72   70    8 1
    73   71   42 1
    74   72   42 1
    75   73   42 1
    76   74   37 1
    77   75   37 1
    78   76   37 1
    79   77   40 1
    80   78   40 1
    81   79   40 1
    82   80   35 1
    83   81   35 1
    84   82   35 1
@<TRIPOS>SUBSTRUCTURE
     1 UNL1     1 RESIDUE           4 A     UNL1     0 ROOT
