@<TRIPOS>MOLECULE
ZINC000053683151
 46 52 0 0 0
SMALL
GASTEIGER

@<TRIPOS>ATOM
      1  C         -2.2640    9.9290  -39.5850 C.3     1  UNL1        0.2900
      2  C         -3.4990    9.2520  -40.1190 C.2     1  UNL1        0.5300
      3  N         -4.5580    9.9640  -40.5270 N.am    1  UNL1       -0.6100
      4  C         -5.8890    9.4190  -40.8520 C.3     1  UNL1        0.2600
      5  C         -6.9090   10.5500  -40.6060 C.3     1  UNL1        0.0200
      6  C         -6.0600   11.7640  -40.1580 C.3     1  UNL1        0.0700
      7  C         -4.6570   11.4180  -40.7030 C.3     1  UNL1        0.2700
      8  C         -3.5860   12.1660  -39.9330 C.3     1  UNL1        0.4600
      9  O         -3.2590   13.4020  -40.5890 O.3     1  UNL1       -0.3100
     10  C         -1.8630   13.6020  -40.2920 C.3     1  UNL1        0.3100
     11  C         -1.3040   12.2120  -40.0730 C.2     1  UNL1        0.5000
     12  O         -0.1330   11.8970  -40.0970 O.2     1  UNL1       -0.4600
     13  O         -3.5340    8.0410  -40.1800 O.2     1  UNL1       -0.5100
     14  N         -2.3520   11.3690  -39.8400 N.am    1  UNL1       -0.6400
     15  N         -1.7130   14.4070  -39.0760 N.am    1  UNL1       -0.7300
     16  H         -2.4810   14.5760  -38.5090 H       1  UNL1        0.4100
     17  C         -0.5080   14.9110  -38.7470 C.2     1  UNL1        0.5300
     18  O          0.4290   14.7900  -39.5080 O.2     1  UNL1       -0.4900
     19  C         -0.3230   15.6250  -37.4330 C.3     1  UNL1        0.0500
     20  C         -0.0050   14.6260  -36.3540 C.2     1  UNL1       -0.0200
     21  C         -0.4320   14.7820  -35.1140 C.2     1  UNL1       -0.0500
     22  C         -0.0960   13.7610  -34.1020 C.ar    1  UNL1        0.0000
     23  C         -0.1240   14.2340  -32.7730 C.ar    1  UNL1       -0.1300
     24  C          0.1380   13.4670  -31.6330 C.ar    1  UNL1        0.1300
     25  N         -0.0200   14.3220  -30.5830 N.ar    1  UNL1       -0.5800
     26  H          0.0900   14.0790  -29.6500 H       1  UNL1        0.4200
     27  C         -0.3580   15.5880  -31.0350 C.ar    1  UNL1        0.0700
     28 BR         -0.6680   17.0860  -29.9240 Br      1  UNL1        0.0100
     29  C          0.4660   12.1270  -31.8250 C.ar    1  UNL1        0.0100
     30  C          0.5050   11.6560  -33.1320 C.ar    1  UNL1        0.0400
     31  C         -0.4330   15.5990  -32.3630 C.ar    1  UNL1       -0.1100
     32  C         -0.7300   16.6430  -33.4070 C.3     1  UNL1        0.1400
     33  C          0.2340   12.4340  -34.2550 C.ar    1  UNL1        0.0000
     34  C         -1.2620   15.9590  -34.6740 C.3     1  UNL1        0.1900
     35  N         -1.4430   16.9510  -35.7270 N.3     1  UNL1       -0.5500
     36  C         -2.5510   17.8600  -35.4100 C.3     1  UNL1        0.2100
     37  C         -1.6190   16.3510  -37.0530 C.3     1  UNL1        0.2200
     38  C         -1.1610   14.2810  -41.4680 C.3     1  UNL1        0.0100
     39  C         -1.9550   15.5180  -41.8930 C.3     1  UNL1        0.0500
     40  C         -1.0710   13.3040  -42.6420 C.3     1  UNL1        0.0400
     41  O         -4.0610   12.4590  -38.6180 O.3     1  UNL1       -0.5400
     42  H         -3.7850   13.3230  -38.2830 H       1  UNL1        0.3800
     43  C         -2.1580    9.6830  -38.0790 C.3     1  UNL1        0.0500
     44  C          0.0390    9.8930  -36.9070 C.3     1  UNL1        0.0100
     45  C         -0.8350    8.9800  -37.7690 C.3     1  UNL1       -0.0100
     46  C         -1.1140    7.6790  -37.0120 C.3     1  UNL1        0.0200
@<TRIPOS>BOND
     1    40    38    1
     2    39    38    1
     3    38    10    1
     4     4     5    1
     5     4     3    1
     6     7     3    1
     7     7     6    1
     8     7     8    1
     9     5     6    1
    10     9    10    1
    11     9     8    1
    12     3     2   am
    13    10    11    1
    14    10    15    1
    15    13     2    2
    16     2     1    1
    17    12    11    2
    18    11    14   am
    19     8    14    1
    20     8    41    1
    21    14     1    1
    22     1    43    1
    23    18    17    2
    24    15    17   am
    25    15    16    1
    26    17    19    1
    27    41    42    1
    28    43    45    1
    29    45    46    1
    30    45    44    1
    31    19    37    1
    32    19    20    1
    33    37    35    1
    34    20    21    2
    35    35    36    1
    36    35    34    1
    37    21    34    1
    38    21    22    1
    39    34    32    1
    40    33    22   ar
    41    33    30   ar
    42    22    23   ar
    43    32    31    1
    44    30    29   ar
    45    23    31   ar
    46    23    24   ar
    47    31    27   ar
    48    29    24   ar
    49    24    25   ar
    50    27    25   ar
    51    27    28    1
    52    25    26    1
