@<TRIPOS>MOLECULE
ZINC000053683151
84 90 1 0 0
SMALL
AMBER ff14SB


@<TRIPOS>ATOM
      1 C          -2.2640    9.9290  -39.5850 C.3       1 UNL1    0.0000
      2 C          -3.4990    9.2520  -40.1190 C.2       1 UNL1    0.0000
      3 N          -4.5580    9.9640  -40.5270 N.am      1 UNL1    0.0000
      4 C          -5.8890    9.4190  -40.8520 C.3       1 UNL1    0.0000
      5 C          -6.9090   10.5500  -40.6060 C.3       1 UNL1    0.0000
      6 C          -6.0600   11.7640  -40.1580 C.3       1 UNL1    0.0000
      7 C          -4.6570   11.4180  -40.7030 C.3       1 UNL1    0.0000
      8 C          -3.5860   12.1660  -39.9330 C.3       1 UNL1    0.0000
      9 O          -3.2590   13.4020  -40.5890 O.3       1 UNL1    0.0000
     10 C          -1.8630   13.6020  -40.2920 C.3       1 UNL1    0.0000
     11 C          -1.3040   12.2120  -40.0730 C.2       1 UNL1    0.0000
     12 O          -0.1330   11.8970  -40.0970 O.2       1 UNL1    0.0000
     13 O          -3.5340    8.0410  -40.1800 O.2       1 UNL1    0.0000
     14 N          -2.3520   11.3690  -39.8400 N.am      1 UNL1    0.0000
     15 N          -1.7130   14.4070  -39.0760 N.am      1 UNL1    0.0000
     16 H          -2.4810   14.5760  -38.5090 H         1 UNL1    0.0000
     17 C          -0.5080   14.9110  -38.7470 C.2       1 UNL1    0.0000
     18 O           0.4290   14.7900  -39.5080 O.2       1 UNL1    0.0000
     19 C          -0.3230   15.6250  -37.4330 C.3       1 UNL1    0.0000
     20 C          -0.0050   14.6260  -36.3540 C.2       1 UNL1    0.0000
     21 C          -0.4320   14.7820  -35.1140 C.2       1 UNL1    0.0000
     22 C          -0.0960   13.7610  -34.1020 C.ar      1 UNL1    0.0000
     23 C          -0.1240   14.2340  -32.7730 C.ar      1 UNL1    0.0000
     24 C           0.1380   13.4670  -31.6330 C.ar      1 UNL1    0.0000
     25 N          -0.0200   14.3220  -30.5830 N.ar      1 UNL1    0.0000
     26 H           0.0900   14.0790  -29.6500 H         1 UNL1    0.0000
     27 C          -0.3580   15.5880  -31.0350 C.ar      1 UNL1    0.0000
     28 BR         -0.6680   17.0860  -29.9240 Br        1 UNL1    0.0000
     29 C           0.4660   12.1270  -31.8250 C.ar      1 UNL1    0.0000
     30 C           0.5050   11.6560  -33.1320 C.ar      1 UNL1    0.0000
     31 C          -0.4330   15.5990  -32.3630 C.ar      1 UNL1    0.0000
     32 C          -0.7300   16.6430  -33.4070 C.3       1 UNL1    0.0000
     33 C           0.2340   12.4340  -34.2550 C.ar      1 UNL1    0.0000
     34 C          -1.2620   15.9590  -34.6740 C.3       1 UNL1    0.0000
     35 N          -1.4430   16.9510  -35.7270 N.3       1 UNL1    0.0000
     36 C          -2.5510   17.8600  -35.4100 C.3       1 UNL1    0.0000
     37 C          -1.6190   16.3510  -37.0530 C.3       1 UNL1    0.0000
     38 C          -1.1610   14.2810  -41.4680 C.3       1 UNL1    0.0000
     39 C          -1.9550   15.5180  -41.8930 C.3       1 UNL1    0.0000
     40 C          -1.0710   13.3040  -42.6420 C.3       1 UNL1    0.0000
     41 O          -4.0610   12.4590  -38.6180 O.3       1 UNL1    0.0000
     42 H          -3.7850   13.3230  -38.2830 H         1 UNL1    0.0000
     43 C          -2.1580    9.6830  -38.0790 C.3       1 UNL1    0.0000
     44 C           0.0390    9.8930  -36.9070 C.3       1 UNL1    0.0000
     45 C          -0.8350    8.9800  -37.7690 C.3       1 UNL1    0.0000
     46 C          -1.1140    7.6790  -37.0120 C.3       1 UNL1    0.0000
     47 HC         -1.3829    9.5243  -40.0829 H         1 UNL1    0.0000
     48 HC2        -5.9211    9.1060  -41.8956 H         1 UNL1    0.0000
     49 HC3        -6.1113    8.5715  -40.2036 H         1 UNL1    0.0000
     50 HC4        -7.6142   10.2665  -39.8247 H         1 UNL1    0.0000
     51 HC5        -7.4421   10.7831  -41.5277 H         1 UNL1    0.0000
     52 HC6        -6.4347   12.6887  -40.5968 H         1 UNL1    0.0000
     53 HC7        -6.0407   11.8369  -39.0706 H         1 UNL1    0.0000
     54 HC1        -4.5973   11.6691  -41.7620 H         1 UNL1    0.0000
     55 HC8         0.4904   16.3456  -37.5178 H         1 UNL1    0.0000
     56 HC9         0.5885   13.7579  -36.6001 H         1 UNL1    0.0000
     57 HC10        0.6820   11.4780  -30.9892 H         1 UNL1    0.0000
     58 HC11        0.7623   10.6186  -33.2870 H         1 UNL1    0.0000
     59 HC12        0.1826   17.1896  -33.6447 H         1 UNL1    0.0000
     60 HC13       -1.4800   17.3359  -33.0255 H         1 UNL1    0.0000
     61 HC14        0.2827   11.9976  -35.2417 H         1 UNL1    0.0000
     62 HC15       -2.2521   15.5730  -34.4314 H         1 UNL1    0.0000
     63 HN         -0.6008   17.5075  -35.7607 H         1 UNL1    0.0000
     64 HC16       -2.4450   15.6403  -37.0284 H         1 UNL1    0.0000
     65 HC17       -1.8293   17.1320  -37.7837 H         1 UNL1    0.0000
     66 HC18       -0.1569   14.5802  -41.1673 H         1 UNL1    0.0000
     67 HC19       -2.1950   10.6363  -37.5518 H         1 UNL1    0.0000
     68 HC20       -2.9879    9.0555  -37.7540 H         1 UNL1    0.0000
     69 HC21       -0.3164    8.7543  -38.7008 H         1 UNL1    0.0000
     70 HC22       -2.0192   16.2142  -41.0567 H         1 UNL1    0.0000
     71 HC23       -1.4525   16.0019  -42.7305 H         1 UNL1    0.0000
     72 HC24       -2.9588   15.2193  -42.1950 H         1 UNL1    0.0000
     73 HC25        0.2384   10.8198  -37.4450 H         1 UNL1    0.0000
     74 HC26       -0.4799   10.1184  -35.9753 H         1 UNL1    0.0000
     75 HC27        0.9811    9.3913  -36.6860 H         1 UNL1    0.0000
     76 HC28       -1.7367    7.0276  -37.6252 H         1 UNL1    0.0000
     77 HC29       -1.6325    7.9051  -36.0803 H         1 UNL1    0.0000
     78 HC30       -0.1715    7.1780  -36.7910 H         1 UNL1    0.0000
     79 HC31       -0.9846   13.8623  -43.5742 H         1 UNL1    0.0000
     80 HC32       -0.1953   12.6669  -42.5179 H         1 UNL1    0.0000
     81 HC33       -1.9686   12.6863  -42.6703 H         1 UNL1    0.0000
     82 HC34       -2.6639   18.5896  -36.2119 H         1 UNL1    0.0000
     83 HC35       -3.4727   17.2872  -35.3079 H         1 UNL1    0.0000
     84 HC36       -2.3397   18.3781  -34.4746 H         1 UNL1    0.0000
@<TRIPOS>BOND
     1   40   38 1
     2   39   38 1
     3   38   10 1
     4    4    5 1
     5    4    3 1
     6    7    3 1
     7    7    6 1
     8    7    8 1
     9    5    6 1
    10    9   10 1
    11    9    8 1
    12    3    2 am
    13   10   11 1
    14   10   15 1
    15   13    2 2
    16    2    1 1
    17   12   11 2
    18   11   14 am
    19    8   14 1
    20    8   41 1
    21   14    1 1
    22    1   43 1
    23   18   17 2
    24   15   17 am
    25   15   16 1
    26   17   19 1
    27   41   42 1
    28   43   45 1
    29   45   46 1
    30   45   44 1
    31   19   37 1
    32   19   20 1
    33   37   35 1
    34   20   21 2
    35   35   36 1
    36   35   34 1
    37   21   34 1
    38   21   22 1
    39   34   32 1
    40   33   22 ar
    41   33   30 ar
    42   22   23 ar
    43   32   31 1
    44   30   29 ar
    45   23   31 ar
    46   23   24 ar
    47   31   27 ar
    48   29   24 ar
    49   24   25 ar
    50   27   25 ar
    51   27   28 1
    52   25   26 1
    53   47    1 1
    54   48    4 1
    55   49    4 1
    56   50    5 1
    57   51    5 1
    58   52    6 1
    59   53    6 1
    60   54    7 1
    61   55   19 1
    62   56   20 1
    63   57   29 1
    64   58   30 1
    65   59   32 1
    66   60   32 1
    67   61   33 1
    68   62   34 1
    69   63   35 1
    70   64   37 1
    71   65   37 1
    72   66   38 1
    73   67   43 1
    74   68   43 1
    75   69   45 1
    76   70   39 1
    77   71   39 1
    78   72   39 1
    79   73   44 1
    80   74   44 1
    81   75   44 1
    82   76   46 1
    83   77   46 1
    84   78   46 1
    85   79   40 1
    86   80   40 1
    87   81   40 1
    88   82   36 1
    89   83   36 1
    90   84   36 1
@<TRIPOS>SUBSTRUCTURE
     1 UNL1     1 RESIDUE           4 A     UNL1     0 ROOT
