@<TRIPOS>MOLECULE
ZINC000100005148
85 89 1 0 0
SMALL
AMBER ff14SB


@<TRIPOS>ATOM
      1 C          -6.6660   19.9020  -28.6650 C.2       1 UNL1    0.0000
      2 O          -7.4160   20.7680  -29.0780 O.2       1 UNL1    0.0000
      3 C          -6.1930   19.9140  -24.9200 C.2       1 UNL1    0.0000
      4 C          -5.0630   20.6400  -24.8810 C.2       1 UNL1    0.0000
      5 N          -4.3580   20.9000  -26.0260 N.pl3     1 UNL1    0.0000
      6 H          -3.4350   21.1920  -25.9680 H         1 UNL1    0.0000
      7 C          -4.9510   20.7510  -27.2500 C.2       1 UNL1    0.0000
      8 C          -6.0770   20.0290  -27.3870 C.2       1 UNL1    0.0000
      9 C          -4.3330   21.4020  -28.4600 C.3       1 UNL1    0.0000
     10 C          -4.5640   21.1740  -23.5630 C.3       1 UNL1    0.0000
     11 C          -6.7200   19.3500  -26.2080 C.3       1 UNL1    0.0000
     12 C          -6.4290   17.8720  -26.2680 C.ar      1 UNL1    0.0000
     13 C          -7.4460   16.9780  -26.5440 C.ar      1 UNL1    0.0000
     14 C          -7.1790   15.6230  -26.5990 C.ar      1 UNL1    0.0000
     15 C          -5.8960   15.1620  -26.3770 C.ar      1 UNL1    0.0000
     16 C          -4.8780   16.0570  -26.1020 C.ar      1 UNL1    0.0000
     17 C          -5.1440   17.4120  -26.0510 C.ar      1 UNL1    0.0000
     18 N          -3.5020   15.5630  -25.8630 N.pl3     1 UNL1    0.0000
     19 O          -2.5860   15.9470  -26.5690 O.2       1 UNL1    0.0000
     20 O          -3.2880   14.7720  -24.9630 O.2       1 UNL1    0.0000
     21 C          -6.9000   19.6720  -23.7180 C.2       1 UNL1    0.0000
     22 O          -6.6170   18.7100  -23.0290 O.2       1 UNL1    0.0000
     23 C          -7.7920   21.0720  -22.0280 C.3       1 UNL1    0.0000
     24 O          -7.8890   20.5070  -23.3370 O.3       1 UNL1    0.0000
     25 O          -6.3970   18.8230  -29.4280 O.3       1 UNL1    0.0000
     26 C          -5.9500   19.0670  -30.7640 C.3       1 UNL1    0.0000
     27 C          -5.7140   17.7330  -31.4740 C.3       1 UNL1    0.0000
     28 N          -4.2980   17.6200  -31.8460 N.3       1 UNL1    0.0000
     29 C          -4.0370   16.3580  -32.5520 C.3       1 UNL1    0.0000
     30 C          -2.5670   16.3060  -32.9740 C.3       1 UNL1    0.0000
     31 N          -1.7120   16.4060  -31.7860 N.4       1 UNL1    0.0000
     32 C          -1.9660   17.6830  -31.1040 C.3       1 UNL1    0.0000
     33 H          -1.9180   15.6440  -31.1570 H         1 UNL1    0.0000
     34 C          -3.4310   17.7460  -30.6660 C.3       1 UNL1    0.0000
     35 C          -0.3020   16.3400  -32.1890 C.3       1 UNL1    0.0000
     36 C           0.1840   14.9170  -32.0840 C.ar      1 UNL1    0.0000
     37 C           1.4270   14.5720  -32.5800 C.ar      1 UNL1    0.0000
     38 C           1.8730   13.2670  -32.4840 C.ar      1 UNL1    0.0000
     39 C           1.0750   12.3070  -31.8900 C.ar      1 UNL1    0.0000
     40 C          -0.1680   12.6510  -31.3930 C.ar      1 UNL1    0.0000
     41 C          -0.6110   13.9570  -31.4860 C.ar      1 UNL1    0.0000
     42 C           0.5230   17.2190  -31.2840 C.ar      1 UNL1    0.0000
     43 C           1.0470   18.4050  -31.7640 C.ar      1 UNL1    0.0000
     44 C           1.8030   19.2120  -30.9340 C.ar      1 UNL1    0.0000
     45 C           2.0360   18.8320  -29.6260 C.ar      1 UNL1    0.0000
     46 C           1.5120   17.6460  -29.1460 C.ar      1 UNL1    0.0000
     47 C           0.7520   16.8410  -29.9740 C.ar      1 UNL1    0.0000
     48 HC         -7.7982   19.5041  -26.2510 H         1 UNL1    0.0000
     49 HC1        -8.4494   17.3381  -26.7167 H         1 UNL1    0.0000
     50 HC2        -7.9737   14.9245  -26.8156 H         1 UNL1    0.0000
     51 HC3        -5.6878   14.1031  -26.4181 H         1 UNL1    0.0000
     52 HC4        -4.3480   18.1113  -25.8416 H         1 UNL1    0.0000
     53 HC5        -5.0196   19.6342  -30.7379 H         1 UNL1    0.0000
     54 HC6        -6.7077   19.6363  -31.3025 H         1 UNL1    0.0000
     55 HC7        -5.9805   16.9139  -30.8060 H         1 UNL1    0.0000
     56 HC8        -6.3305   17.6850  -32.3716 H         1 UNL1    0.0000
     57 HN         -4.0799   18.3795  -32.4751 H         1 UNL1    0.0000
     58 HC9        -4.6714   16.2983  -33.4364 H         1 UNL1    0.0000
     59 HC10       -4.2553   15.5195  -31.8907 H         1 UNL1    0.0000
     60 HC11       -2.3693   15.3639  -33.4853 H         1 UNL1    0.0000
     61 HC12       -2.3526   17.1364  -33.6468 H         1 UNL1    0.0000
     62 HC13       -1.3216   17.7614  -30.2284 H         1 UNL1    0.0000
     63 HC14       -1.7548   18.5071  -31.7854 H         1 UNL1    0.0000
     64 HC15       -3.6228   18.6995  -30.1739 H         1 UNL1    0.0000
     65 HC16       -3.6389   16.9307  -29.9731 H         1 UNL1    0.0000
     66 HC17       -0.2019   16.6831  -33.2187 H         1 UNL1    0.0000
     67 HC18        2.0505   15.3226  -33.0430 H         1 UNL1    0.0000
     68 HC19        2.8440   12.9977  -32.8727 H         1 UNL1    0.0000
     69 HC20        1.4231   11.2875  -31.8143 H         1 UNL1    0.0000
     70 HC21       -0.7926   11.9000  -30.9324 H         1 UNL1    0.0000
     71 HC22       -1.5791   14.2277  -31.0911 H         1 UNL1    0.0000
     72 HC23        0.8659   18.7009  -32.7868 H         1 UNL1    0.0000
     73 HC24        2.2114   20.1393  -31.3079 H         1 UNL1    0.0000
     74 HC25        2.6278   19.4618  -28.9783 H         1 UNL1    0.0000
     75 HC26        1.6964   17.3485  -28.1243 H         1 UNL1    0.0000
     76 HC27        0.3374   15.9174  -29.5978 H         1 UNL1    0.0000
     77 HC28       -3.6407   21.7311  -23.7222 H         1 UNL1    0.0000
     78 HC29       -5.3161   21.8338  -23.1304 H         1 UNL1    0.0000
     79 HC30       -4.3746   20.3436  -22.8828 H         1 UNL1    0.0000
     80 HC31       -8.6479   21.7226  -21.8482 H         1 UNL1    0.0000
     81 HC32       -6.8724   21.6520  -21.9501 H         1 UNL1    0.0000
     82 HC33       -7.7813   20.2726  -21.2871 H         1 UNL1    0.0000
     83 HC34       -3.4314   21.9382  -28.1640 H         1 UNL1    0.0000
     84 HC35       -5.0442   22.1019  -28.8987 H         1 UNL1    0.0000
     85 HC36       -4.0767   20.6371  -29.1930 H         1 UNL1    0.0000
@<TRIPOS>BOND
     1   30   29 1
     2   30   31 1
     3   37   38 ar
     4   37   36 ar
     5   29   28 1
     6   38   39 ar
     7   35   36 1
     8   35   31 1
     9   35   42 1
    10   36   41 ar
    11   39   40 ar
    12   28   27 1
    13   28   34 1
    14   31   33 1
    15   31   32 1
    16   43   42 ar
    17   43   44 ar
    18   41   40 ar
    19   27   26 1
    20   42   47 ar
    21   32   34 1
    22   44   45 ar
    23   26   25 1
    24   47   46 ar
    25   45   46 ar
    26   25    1 1
    27    2    1 2
    28    1    8 1
    29    9    7 1
    30    8    7 2
    31    8   11 1
    32    7    5 1
    33   14   13 ar
    34   14   15 ar
    35   19   18 2
    36   13   12 ar
    37   15   16 ar
    38   12   11 1
    39   12   17 ar
    40   11    3 1
    41   16   17 ar
    42   16   18 1
    43    5    6 1
    44    5    4 1
    45   18   20 2
    46    3    4 2
    47    3   21 1
    48    4   10 1
    49   21   24 1
    50   21   22 2
    51   24   23 1
    52   48   11 1
    53   49   13 1
    54   50   14 1
    55   51   15 1
    56   52   17 1
    57   53   26 1
    58   54   26 1
    59   55   27 1
    60   56   27 1
    61   57   28 1
    62   58   29 1
    63   59   29 1
    64   60   30 1
    65   61   30 1
    66   62   32 1
    67   63   32 1
    68   64   34 1
    69   65   34 1
    70   66   35 1
    71   67   37 1
    72   68   38 1
    73   69   39 1
    74   70   40 1
    75   71   41 1
    76   72   43 1
    77   73   44 1
    78   74   45 1
    79   75   46 1
    80   76   47 1
    81   77   10 1
    82   78   10 1
    83   79   10 1
    84   80   23 1
    85   81   23 1
    86   82   23 1
    87   83    9 1
    88   84    9 1
    89   85    9 1
@<TRIPOS>SUBSTRUCTURE
     1 UNL1     1 RESIDUE           4 A     UNL1     0 ROOT
