@<TRIPOS>MOLECULE
ZINC000100005148
 47 51 0 0 0
SMALL
GASTEIGER

@<TRIPOS>ATOM
      1  C         -6.6660   19.9020  -28.6650 C.2     1  UNL1        0.5200
      2  O         -7.4160   20.7680  -29.0780 O.2     1  UNL1       -0.5200
      3  C         -6.1930   19.9140  -24.9200 C.2     1  UNL1       -0.2400
      4  C         -5.0630   20.6400  -24.8810 C.2     1  UNL1        0.1900
      5  N         -4.3580   20.9000  -26.0260 N.pl3   1  UNL1       -0.6300
      6  H         -3.4350   21.1920  -25.9680 H       1  UNL1        0.4300
      7  C         -4.9510   20.7510  -27.2500 C.2     1  UNL1        0.2500
      8  C         -6.0770   20.0290  -27.3870 C.2     1  UNL1       -0.2700
      9  C         -4.3330   21.4020  -28.4600 C.3     1  UNL1        0.1600
     10  C         -4.5640   21.1740  -23.5630 C.3     1  UNL1        0.1400
     11  C         -6.7200   19.3500  -26.2080 C.3     1  UNL1        0.2000
     12  C         -6.4290   17.8720  -26.2680 C.ar    1  UNL1       -0.0700
     13  C         -7.4460   16.9780  -26.5440 C.ar    1  UNL1        0.0800
     14  C         -7.1790   15.6230  -26.5990 C.ar    1  UNL1        0.0400
     15  C         -5.8960   15.1620  -26.3770 C.ar    1  UNL1        0.1000
     16  C         -4.8780   16.0570  -26.1020 C.ar    1  UNL1       -0.0400
     17  C         -5.1440   17.4120  -26.0510 C.ar    1  UNL1        0.1100
     18  N         -3.5020   15.5630  -25.8630 N.pl3   1  UNL1        0.0300
     19  O         -2.5860   15.9470  -26.5690 O.2     1  UNL1       -0.1700
     20  O         -3.2880   14.7720  -24.9630 O.2     1  UNL1       -0.1600
     21  C         -6.9000   19.6720  -23.7180 C.2     1  UNL1        0.5300
     22  O         -6.6170   18.7100  -23.0290 O.2     1  UNL1       -0.5000
     23  C         -7.7920   21.0720  -22.0280 C.3     1  UNL1        0.2600
     24  O         -7.8890   20.5070  -23.3370 O.3     1  UNL1       -0.3500
     25  O         -6.3970   18.8230  -29.4280 O.3     1  UNL1       -0.3400
     26  C         -5.9500   19.0670  -30.7640 C.3     1  UNL1        0.2200
     27  C         -5.7140   17.7330  -31.4740 C.3     1  UNL1        0.2300
     28  N         -4.2980   17.6200  -31.8460 N.3     1  UNL1       -0.5300
     29  C         -4.0370   16.3580  -32.5520 C.3     1  UNL1        0.2200
     30  C         -2.5670   16.3060  -32.9740 C.3     1  UNL1        0.2800
     31  N         -1.7120   16.4060  -31.7860 N.4     1  UNL1       -0.3800
     32  C         -1.9660   17.6830  -31.1040 C.3     1  UNL1        0.2800
     33  H         -1.9180   15.6440  -31.1570 H       1  UNL1        0.4100
     34  C         -3.4310   17.7460  -30.6660 C.3     1  UNL1        0.2000
     35  C         -0.3020   16.3400  -32.1890 C.3     1  UNL1        0.2800
     36  C          0.1840   14.9170  -32.0840 C.ar    1  UNL1       -0.1300
     37  C          1.4270   14.5720  -32.5800 C.ar    1  UNL1       -0.0100
     38  C          1.8730   13.2670  -32.4840 C.ar    1  UNL1        0.0300
     39  C          1.0750   12.3070  -31.8900 C.ar    1  UNL1        0.0500
     40  C         -0.1680   12.6510  -31.3930 C.ar    1  UNL1        0.0400
     41  C         -0.6110   13.9570  -31.4860 C.ar    1  UNL1        0.0400
     42  C          0.5230   17.2190  -31.2840 C.ar    1  UNL1       -0.1300
     43  C          1.0470   18.4050  -31.7640 C.ar    1  UNL1       -0.0100
     44  C          1.8030   19.2120  -30.9340 C.ar    1  UNL1        0.0300
     45  C          2.0360   18.8320  -29.6260 C.ar    1  UNL1        0.0500
     46  C          1.5120   17.6460  -29.1460 C.ar    1  UNL1        0.0400
     47  C          0.7520   16.8410  -29.9740 C.ar    1  UNL1        0.0400
@<TRIPOS>BOND
     1    30    29    1
     2    30    31    1
     3    37    38   ar
     4    37    36   ar
     5    29    28    1
     6    38    39   ar
     7    35    36    1
     8    35    31    1
     9    35    42    1
    10    36    41   ar
    11    39    40   ar
    12    28    27    1
    13    28    34    1
    14    31    33    1
    15    31    32    1
    16    43    42   ar
    17    43    44   ar
    18    41    40   ar
    19    27    26    1
    20    42    47   ar
    21    32    34    1
    22    44    45   ar
    23    26    25    1
    24    47    46   ar
    25    45    46   ar
    26    25     1    1
    27     2     1    2
    28     1     8    1
    29     9     7    1
    30     8     7    2
    31     8    11    1
    32     7     5    1
    33    14    13   ar
    34    14    15   ar
    35    19    18    2
    36    13    12   ar
    37    15    16   ar
    38    12    11    1
    39    12    17   ar
    40    11     3    1
    41    16    17   ar
    42    16    18    1
    43     5     6    1
    44     5     4    1
    45    18    20    2
    46     3     4    2
    47     3    21    1
    48     4    10    1
    49    21    24    1
    50    21    22    2
    51    24    23    1
