@<TRIPOS>MOLECULE
ZINC000000538159
 28 31 0 0 0
SMALL
GASTEIGER

@<TRIPOS>ATOM
      1  C        -19.7540   -5.1750  -25.7170 C.ar    1  UNL1        0.0100
      2  C        -19.0150   -6.3510  -25.8640 C.ar    1  UNL1        0.0700
      3  C        -19.1030   -7.0740  -27.0340 C.ar    1  UNL1        0.0900
      4  C        -19.9240   -6.6410  -28.0700 C.ar    1  UNL1       -0.1200
      5  S        -20.0030   -7.5840  -29.5540 S.3     1  UNL1        0.0500
      6  C        -20.6910   -6.4570  -30.7200 C.ar    1  UNL1       -0.1600
      7  C        -20.5680   -6.7230  -32.0760 C.ar    1  UNL1        0.0900
      8  C        -21.1000   -5.8510  -33.0080 C.ar    1  UNL1        0.0100
      9  C        -21.7580   -4.7100  -32.5880 C.ar    1  UNL1        0.0500
     10  C        -21.8850   -4.4390  -31.2390 C.ar    1  UNL1       -0.0400
     11  C        -21.3540   -5.3100  -30.2930 C.ar    1  UNL1        0.1900
     12  N        -21.5080   -5.0090  -28.9430 N.pl3   1  UNL1       -0.5600
     13  C        -20.6700   -5.4700  -27.9310 C.ar    1  UNL1        0.1900
     14  C        -20.5840   -4.7420  -26.7540 C.ar    1  UNL1        0.0100
     15  N        -19.5920   -3.8180  -23.5430 N.1     1  UNL1       -0.4000
     16  C        -19.6640   -4.4180  -24.5050 C.1     1  UNL1        0.2400
     17  C        -22.6310   -4.1480  -28.5600 C.3     1  UNL1        0.3200
     18  C        -23.9300   -4.9580  -28.6000 C.3     1  UNL1        0.0100
     19  C        -24.1650   -5.6090  -27.2350 C.3     1  UNL1        0.2700
     20  N        -24.3630   -4.5630  -26.2220 N.4     1  UNL1       -0.3900
     21  C        -23.6630   -4.9420  -24.9880 C.3     1  UNL1        0.2700
     22  C        -23.7980   -3.8190  -23.9560 C.3     1  UNL1        0.0800
     23  C        -25.2820   -3.5870  -23.6540 C.3     1  UNL1        0.1700
     24  C        -26.0140   -3.2660  -24.9590 C.3     1  UNL1        0.0400
     25  C        -25.7970   -4.4100  -25.9530 C.3     1  UNL1        0.2500
     26  H        -23.9910   -3.6900  -26.5640 H       1  UNL1        0.4200
     27  O        -25.4180   -2.4910  -22.7470 O.3     1  UNL1       -0.5500
     28  H        -25.7290   -2.7460  -21.8670 H       1  UNL1        0.3900
@<TRIPOS>BOND
     1     8     9   ar
     2     8     7   ar
     3     9    10   ar
     4     7     6   ar
     5    10    11   ar
     6     6    11   ar
     7     6     5    1
     8    11    12    1
     9     5     4    1
    10    12    17    1
    11    12    13    1
    12    18    17    1
    13    18    19    1
    14     4    13   ar
    15     4     3   ar
    16    13    14   ar
    17    19    20    1
    18     3     2   ar
    19    14     1   ar
    20    26    20    1
    21    20    25    1
    22    20    21    1
    23    25    24    1
    24     2     1   ar
    25     1    16    1
    26    21    22    1
    27    24    23    1
    28    16    15    3
    29    22    23    1
    30    23    27    1
    31    27    28    1
