@<TRIPOS>MOLECULE
ZINC000000538159
50 53 1 0 0
SMALL
AMBER ff14SB


@<TRIPOS>ATOM
      1 C         -19.7540   -5.1750  -25.7170 C.ar      1 UNL1    0.0000
      2 C         -19.0150   -6.3510  -25.8640 C.ar      1 UNL1    0.0000
      3 C         -19.1030   -7.0740  -27.0340 C.ar      1 UNL1    0.0000
      4 C         -19.9240   -6.6410  -28.0700 C.ar      1 UNL1    0.0000
      5 S         -20.0030   -7.5840  -29.5540 S.3       1 UNL1    0.0000
      6 C         -20.6910   -6.4570  -30.7200 C.ar      1 UNL1    0.0000
      7 C         -20.5680   -6.7230  -32.0760 C.ar      1 UNL1    0.0000
      8 C         -21.1000   -5.8510  -33.0080 C.ar      1 UNL1    0.0000
      9 C         -21.7580   -4.7100  -32.5880 C.ar      1 UNL1    0.0000
     10 C         -21.8850   -4.4390  -31.2390 C.ar      1 UNL1    0.0000
     11 C         -21.3540   -5.3100  -30.2930 C.ar      1 UNL1    0.0000
     12 N         -21.5080   -5.0090  -28.9430 N.pl3     1 UNL1    0.0000
     13 C         -20.6700   -5.4700  -27.9310 C.ar      1 UNL1    0.0000
     14 C         -20.5840   -4.7420  -26.7540 C.ar      1 UNL1    0.0000
     15 N         -19.5920   -3.8180  -23.5430 N.1       1 UNL1    0.0000
     16 C         -19.6640   -4.4180  -24.5050 C.1       1 UNL1    0.0000
     17 C         -22.6310   -4.1480  -28.5600 C.3       1 UNL1    0.0000
     18 C         -23.9300   -4.9580  -28.6000 C.3       1 UNL1    0.0000
     19 C         -24.1650   -5.6090  -27.2350 C.3       1 UNL1    0.0000
     20 N         -24.3630   -4.5630  -26.2220 N.4       1 UNL1    0.0000
     21 C         -23.6630   -4.9420  -24.9880 C.3       1 UNL1    0.0000
     22 C         -23.7980   -3.8190  -23.9560 C.3       1 UNL1    0.0000
     23 C         -25.2820   -3.5870  -23.6540 C.3       1 UNL1    0.0000
     24 C         -26.0140   -3.2660  -24.9590 C.3       1 UNL1    0.0000
     25 C         -25.7970   -4.4100  -25.9530 C.3       1 UNL1    0.0000
     26 H         -23.9910   -3.6900  -26.5640 H         1 UNL1    0.0000
     27 O         -25.4180   -2.4910  -22.7470 O.3       1 UNL1    0.0000
     28 H         -25.7290   -2.7460  -21.8670 H         1 UNL1    0.0000
     29 HC        -18.3763   -6.6929  -25.0630 H         1 UNL1    0.0000
     30 HC1       -18.5307   -7.9829  -27.1472 H         1 UNL1    0.0000
     31 HC2       -20.0548   -7.6145  -32.4049 H         1 UNL1    0.0000
     32 HC3       -21.0016   -6.0610  -34.0628 H         1 UNL1    0.0000
     33 HC4       -22.1737   -4.0290  -33.3159 H         1 UNL1    0.0000
     34 HC5       -22.3996   -3.5457  -30.9171 H         1 UNL1    0.0000
     35 HC6       -21.1611   -3.8364  -26.6384 H         1 UNL1    0.0000
     36 HC7       -22.4703   -3.7684  -27.5510 H         1 UNL1    0.0000
     37 HC8       -22.7021   -3.3121  -29.2559 H         1 UNL1    0.0000
     38 HC9       -23.8524   -5.7321  -29.3635 H         1 UNL1    0.0000
     39 HC10      -24.7638   -4.2968  -28.8359 H         1 UNL1    0.0000
     40 HC11      -23.2992   -6.2147  -26.9674 H         1 UNL1    0.0000
     41 HC12      -25.0511   -6.2420  -27.2819 H         1 UNL1    0.0000
     42 HC13      -24.1015   -5.8564  -24.5885 H         1 UNL1    0.0000
     43 HC14      -22.6083   -5.1101  -25.2058 H         1 UNL1    0.0000
     44 HC15      -23.3598   -2.9038  -24.3541 H         1 UNL1    0.0000
     45 HC16      -23.2799   -4.1022  -23.0398 H         1 UNL1    0.0000
     46 HC17      -25.7085   -4.4853  -23.2076 H         1 UNL1    0.0000
     47 HC18      -27.0798   -3.1530  -24.7606 H         1 UNL1    0.0000
     48 HC19      -25.6214   -2.3397  -25.3784 H         1 UNL1    0.0000
     49 HC20      -26.3186   -4.1857  -26.8835 H         1 UNL1    0.0000
     50 HC21      -26.1882   -5.3361  -25.5317 H         1 UNL1    0.0000
@<TRIPOS>BOND
     1    8    9 ar
     2    8    7 ar
     3    9   10 ar
     4    7    6 ar
     5   10   11 ar
     6    6   11 ar
     7    6    5 1
     8   11   12 1
     9    5    4 1
    10   12   17 1
    11   12   13 1
    12   18   17 1
    13   18   19 1
    14    4   13 ar
    15    4    3 ar
    16   13   14 ar
    17   19   20 1
    18    3    2 ar
    19   14    1 ar
    20   26   20 1
    21   20   25 1
    22   20   21 1
    23   25   24 1
    24    2    1 ar
    25    1   16 1
    26   21   22 1
    27   24   23 1
    28   16   15 3
    29   22   23 1
    30   23   27 1
    31   27   28 1
    32   29    2 1
    33   30    3 1
    34   31    7 1
    35   32    8 1
    36   33    9 1
    37   34   10 1
    38   35   14 1
    39   36   17 1
    40   37   17 1
    41   38   18 1
    42   39   18 1
    43   40   19 1
    44   41   19 1
    45   42   21 1
    46   43   21 1
    47   44   22 1
    48   45   22 1
    49   46   23 1
    50   47   24 1
    51   48   24 1
    52   49   25 1
    53   50   25 1
@<TRIPOS>SUBSTRUCTURE
     1 UNL1     1 RESIDUE           4 A     UNL1     0 ROOT
