@<TRIPOS>MOLECULE
LIG
   82    84     1     0     0
SMALL
bcc


@<TRIPOS>ATOM
      1 C           -0.7010    13.8750   -33.2140 c          1 LIG       0.647100
      2 N           -0.9030    14.1620   -34.5150 n          1 LIG      -0.454800
      3 C1          -0.1740    15.1440   -35.3520 c3         1 LIG       0.108000
      4 C2          -1.2660    15.7940   -36.2290 cx         1 LIG      -0.124700
      5 C3          -2.4050    14.7540   -36.2830 cx         1 LIG      -0.139700
      6 C4          -2.6040    16.1430   -35.5740 cx         1 LIG      -0.072000
      7 C5          -3.4930    17.1710   -36.2760 c3         1 LIG      -0.074100
      8 C6          -2.6670    16.1520   -34.0460 c3         1 LIG      -0.074100
      9 C7          -1.8970    13.5630   -35.4340 c3         1 LIG       0.071700
     10 O           -1.3180    12.9720   -32.6900 o          1 LIG      -0.629100
     11 C8          -1.2540    12.5260   -36.3180 c          1 LIG       0.661100
     12 N1          -1.8110    12.2130   -37.5050 ns         1 LIG      -0.570900
     13 H           -2.6260    12.6550   -37.7890 hn         1 LIG       0.328500
     14 O1          -0.2350    11.9730   -35.9620 o          1 LIG      -0.590100
     15 C9          -1.1860    11.2040   -38.3640 c3         1 LIG       0.025700
     16 C10         -0.9710    11.7790   -39.7410 c          1 LIG       0.503100
     17 O2          -0.7840    11.0420   -40.6790 o          1 LIG      -0.500100
     18 C11         -0.9900    13.2550   -39.9430 c          1 LIG       0.568100
     19 O3          -0.2360    13.9640   -39.3100 o          1 LIG      -0.609100
     20 N2          -1.8440    13.8020   -40.8300 nt         1 LIG      -0.648000
     21 H1          -1.8570    14.7630   -40.9620 hn         1 LIG       0.321500
     22 H2          -2.4470    13.2360   -41.3370 hn         1 LIG       0.321500
     23 C12         -2.0990     9.9800   -38.4600 c3         1 LIG      -0.090400
     24 C13         -1.2530     8.7070   -38.4230 cy         1 LIG      -0.091700
     25 C14          0.0860     8.8780   -37.6840 cy         1 LIG      -0.089900
     26 C15         -0.1520     7.4800   -37.0900 cy         1 LIG      -0.094400
     27 C16         -1.6540     7.7310   -37.3030 cy         1 LIG      -0.089900
     28 C17          0.2910    14.6770   -32.4100 c3         1 LIG       0.038700
     29 N3          -0.8530    16.7590   -29.6030 ns         1 LIG      -0.538900
     30 H3          -1.2880    16.1010   -29.0390 hn         1 LIG       0.299500
     31 C18         -0.2860    16.3810   -30.7660 c          1 LIG       0.744100
     32 N4          -0.3250    15.0880   -31.1450 ns         1 LIG      -0.521900
     33 H4          -0.7600    14.4300   -30.5810 hn         1 LIG       0.302500
     34 O4           0.2590    17.2060   -31.4740 o          1 LIG      -0.657100
     35 C19         -1.5580    19.0190   -30.2180 c3         1 LIG      -0.108767
     36 C20         -0.8100    18.1650   -29.1920 c3         1 LIG       0.119400
     37 C21         -1.4760    18.3150   -27.8210 c3         1 LIG      -0.108767
     38 C22          0.6450    18.6280   -29.1050 c3         1 LIG      -0.108767
     39 C23          1.5250    13.8190   -32.1210 c3         1 LIG      -0.041000
     40 C24          2.5010    13.9200   -33.2960 c3         1 LIG      -0.097100
     41 C25          1.1000    12.3620   -31.9350 c3         1 LIG      -0.097100
     42 C26          2.2070    14.3190   -30.8470 c3         1 LIG      -0.097100
     43 HC2          0.3150    15.8930   -34.7290 h1         1 LIG       0.072200
     44 HC3          0.5600    14.6360   -35.9780 h1         1 LIG       0.072200
     45 HC          -0.9740    16.3080   -37.1450 hc         1 LIG       0.100700
     46 HC1         -2.9080    14.5600   -37.2300 hc         1 LIG       0.105700
     47 HC4         -2.7190    13.1230   -34.8690 h1         1 LIG       0.088700
     48 HC5         -0.2260    10.9090   -37.9390 h1         1 LIG       0.120700
     49 HC6         -2.7940     9.9790   -37.6200 hc         1 LIG       0.067200
     50 HC7         -2.6590    10.0170   -39.3940 hc         1 LIG       0.067200
     51 HC8         -1.1510     8.2280   -39.3970 hc         1 LIG       0.065700
     52 HC9          0.9580     8.9550   -38.3330 hc         1 LIG       0.052950
     53 HC10         0.0520     9.6650   -36.9310 hc         1 LIG       0.052950
     54 HC11         0.2610     6.6590   -37.6760 hc         1 LIG       0.048700
     55 HC12         0.1180     7.4200   -36.0360 hc         1 LIG       0.048700
     56 HC13        -2.1630     8.1920   -36.4570 hc         1 LIG       0.052950
     57 HC14        -2.1770     6.8520   -37.6800 hc         1 LIG       0.052950
     58 HC15         0.5870    15.5610   -32.9750 h1         1 LIG       0.096700
     59 HC16        -3.3730    17.0790   -37.3550 hc         1 LIG       0.045200
     60 HC17        -3.2050    18.1740   -35.9620 hc         1 LIG       0.045200
     61 HC18        -4.5350    16.9920   -36.0100 hc         1 LIG       0.045200
     62 HC19         1.1200    18.5210   -30.0800 hc         1 LIG       0.046589
     63 HC20         1.1770    18.0190   -28.3740 hc         1 LIG       0.046589
     64 HC21         0.6760    19.6730   -28.7980 hc         1 LIG       0.046589
     65 HC22         1.9520    11.7750   -31.5930 hc         1 LIG       0.044478
     66 HC23         0.3020    12.3080   -31.1950 hc         1 LIG       0.044478
     67 HC24         0.7420    11.9640   -32.8850 hc         1 LIG       0.044478
     68 HC25        -3.3590    16.9270   -33.7150 hc         1 LIG       0.045200
     69 HC26        -3.0120    15.1810   -33.6910 hc         1 LIG       0.045200
     70 HC27        -1.6750    16.3550   -33.6430 hc         1 LIG       0.045200
     71 HC28         3.2330    13.9540   -30.8170 hc         1 LIG       0.044478
     72 HC29         1.6650    13.9510   -29.9760 hc         1 LIG       0.044478
     73 HC30         2.2090    15.4090   -30.8400 hc         1 LIG       0.044478
     74 HC31        -2.5130    17.9850   -27.8820 hc         1 LIG       0.046589
     75 HC32        -1.4450    19.3610   -27.5150 hc         1 LIG       0.046589
     76 HC33        -0.9440    17.7060   -27.0900 hc         1 LIG       0.046589
     77 HC34         3.3810    13.3090   -33.0920 hc         1 LIG       0.044478
     78 HC35         2.8030    14.9590   -33.4290 hc         1 LIG       0.044478
     79 HC36         2.0140    13.5640   -34.2040 hc         1 LIG       0.044478
     80 HC37        -1.0850    18.9130   -31.1940 hc         1 LIG       0.046589
     81 HC38        -2.5950    18.6880   -30.2790 hc         1 LIG       0.046589
     82 HC39        -1.5280    20.0650   -29.9110 hc         1 LIG       0.046589
@<TRIPOS>BOND
     1    22    20 1   
     2    21    20 1   
     3    20    18 1   
     4    17    16 2   
     5    18    16 1   
     6    18    19 2   
     7    16    15 1   
     8    23    24 1   
     9    23    15 1   
    10    24    25 1   
    11    24    27 1   
    12    15    12 1   
    13    13    12 1   
    14    25    26 1   
    15    12    11 1   
    16    27    26 1   
    17    11    14 2   
    18    11     9 1   
    19     5     4 1   
    20     5     6 1   
    21     5     9 1   
    22     7     6 1   
    23     4     6 1   
    24     4     3 1   
    25     6     8 1   
    26     9     2 1   
    27     3     2 1   
    28     2     1 1   
    29    40    39 1   
    30     1    10 2   
    31     1    28 1   
    32    28    39 1   
    33    28    32 1   
    34    39    41 1   
    35    39    42 1   
    36    34    31 2   
    37    32    31 1   
    38    32    33 1   
    39    31    29 1   
    40    35    36 1   
    41    29    36 1   
    42    29    30 1   
    43    36    38 1   
    44    36    37 1   
    45    43     3 1   
    46    44     3 1   
    47    45     4 1   
    48    46     5 1   
    49    47     9 1   
    50    48    15 1   
    51    49    23 1   
    52    50    23 1   
    53    51    24 1   
    54    52    25 1   
    55    53    25 1   
    56    54    26 1   
    57    55    26 1   
    58    56    27 1   
    59    57    27 1   
    60    58    28 1   
    61    59     7 1   
    62    60     7 1   
    63    61     7 1   
    64    62    38 1   
    65    63    38 1   
    66    64    38 1   
    67    65    41 1   
    68    66    41 1   
    69    67    41 1   
    70    68     8 1   
    71    69     8 1   
    72    70     8 1   
    73    71    42 1   
    74    72    42 1   
    75    73    42 1   
    76    74    37 1   
    77    75    37 1   
    78    76    37 1   
    79    77    40 1   
    80    78    40 1   
    81    79    40 1   
    82    80    35 1   
    83    81    35 1   
    84    82    35 1   
@<TRIPOS>SUBSTRUCTURE
     1 LIG         1 TEMP              0 ****  ****    0 ROOT
