@<TRIPOS>MOLECULE
LIG
   84    90     1     0     0
SMALL
bcc


@<TRIPOS>ATOM
      1 C           -2.2640     9.9290   -39.5850 c3         1 LIG       0.056700
      2 C1          -3.4990     9.2520   -40.1190 c          1 LIG       0.680500
      3 N           -4.5580     9.9640   -40.5270 n          1 LIG      -0.449800
      4 C2          -5.8890     9.4190   -40.8520 c3         1 LIG       0.080000
      5 C3          -6.9090    10.5500   -40.6060 c3         1 LIG      -0.096400
      6 C4          -6.0600    11.7640   -40.1580 c3         1 LIG      -0.084400
      7 C5          -4.6570    11.4180   -40.7030 c3         1 LIG       0.119700
      8 C6          -3.5860    12.1660   -39.9330 c3         1 LIG       0.469000
      9 O           -3.2590    13.4020   -40.5890 os         1 LIG      -0.436600
     10 C7          -1.8630    13.6020   -40.2920 c3         1 LIG       0.253200
     11 C8          -1.3040    12.2120   -40.0730 c          1 LIG       0.668500
     12 O1          -0.1330    11.8970   -40.0970 o          1 LIG      -0.553500
     13 O2          -3.5340     8.0410   -40.1800 o          1 LIG      -0.605500
     14 N1          -2.3520    11.3690   -39.8400 n          1 LIG      -0.524800
     15 N2          -1.7130    14.4070   -39.0760 ns         1 LIG      -0.571900
     16 H           -2.4810    14.5760   -38.5090 hn         1 LIG       0.320500
     17 C9          -0.5080    14.9110   -38.7470 c          1 LIG       0.677100
     18 O3           0.4290    14.7900   -39.5080 o          1 LIG      -0.550100
     19 C10         -0.3230    15.6250   -37.4330 c3         1 LIG      -0.136500
     20 C11         -0.0050    14.6260   -36.3540 c2         1 LIG      -0.185200
     21 C12         -0.4320    14.7820   -35.1140 ce         1 LIG      -0.040400
     22 C13         -0.0960    13.7610   -34.1020 ca         1 LIG      -0.049800
     23 C14         -0.1240    14.2340   -32.7730 ca         1 LIG      -0.096800
     24 C15          0.1380    13.4670   -31.6330 ca         1 LIG      -0.026200
     25 N3          -0.0200    14.3220   -30.5830 na         1 LIG      -0.152400
     26 H1           0.0900    14.0790   -29.6500 hn         1 LIG       0.326700
     27 C16         -0.3580    15.5880   -31.0350 cd         1 LIG       0.012600
     28 Br          -0.6680    17.0860   -29.9240 br         1 LIG       0.024300
     29 C17          0.4660    12.1270   -31.8250 ca         1 LIG      -0.092000
     30 C18          0.5050    11.6560   -33.1320 ca         1 LIG      -0.111000
     31 C19         -0.4330    15.5990   -32.3630 cc         1 LIG      -0.158400
     32 C20         -0.7300    16.6430   -33.4070 c3         1 LIG       0.000800
     33 C21          0.2340    12.4340   -34.2550 ca         1 LIG      -0.102000
     34 C22         -1.2620    15.9590   -34.6740 c3         1 LIG       0.177700
     35 N4          -1.4430    16.9510   -35.7270 nx         1 LIG      -0.685400
     36 C23         -2.5510    17.8600   -35.4100 c3         1 LIG       0.083100
     37 C24         -1.6190    16.3510   -37.0530 c3         1 LIG       0.110800
     38 C25         -1.1610    14.2810   -41.4680 c3         1 LIG      -0.057700
     39 C26         -1.9550    15.5180   -41.8930 c3         1 LIG      -0.093100
     40 C27         -1.0710    13.3040   -42.6420 c3         1 LIG      -0.093100
     41 O4          -4.0610    12.4590   -38.6180 oh         1 LIG      -0.576800
     42 H2          -3.7850    13.3230   -38.2830 ho         1 LIG       0.410000
     43 C28         -2.1580     9.6830   -38.0790 c3         1 LIG      -0.088400
     44 C29          0.0390     9.8930   -36.9070 c3         1 LIG      -0.088600
     45 C30         -0.8350     8.9800   -37.7690 c3         1 LIG      -0.070700
     46 C31         -1.1140     7.6790   -37.0120 c3         1 LIG      -0.088600
     47 HC          -1.3830     9.5240   -40.0830 h1         1 LIG       0.110700
     48 HC2         -5.9210     9.1060   -41.8960 h1         1 LIG       0.070700
     49 HC3         -6.1110     8.5720   -40.2040 h1         1 LIG       0.070700
     50 HC4         -7.6140    10.2670   -39.8250 hc         1 LIG       0.062200
     51 HC5         -7.4420    10.7830   -41.5280 hc         1 LIG       0.062200
     52 HC6         -6.4350    12.6890   -40.5970 hc         1 LIG       0.070700
     53 HC7         -6.0410    11.8370   -39.0710 hc         1 LIG       0.070700
     54 HC1         -4.5970    11.6690   -41.7620 h1         1 LIG       0.082700
     55 HC8          0.4900    16.3460   -37.5180 hc         1 LIG       0.122700
     56 HC9          0.5890    13.7580   -36.6000 ha         1 LIG       0.179000
     57 HC10         0.6820    11.4780   -30.9890 ha         1 LIG       0.158000
     58 HC11         0.7620    10.6190   -33.2870 ha         1 LIG       0.154000
     59 HC12         0.1830    17.1900   -33.6450 hc         1 LIG       0.069200
     60 HC13        -1.4800    17.3360   -33.0260 hc         1 LIG       0.069200
     61 HC14         0.2830    11.9980   -35.2420 ha         1 LIG       0.141000
     62 HC15        -2.2520    15.5730   -34.4310 hx         1 LIG       0.114700
     63 HN          -0.6010    17.5080   -35.7610 hn         1 LIG       0.451800
     64 HC16        -2.4450    15.6400   -37.0280 hx         1 LIG       0.113700
     65 HC17        -1.8290    17.1320   -37.7840 hx         1 LIG       0.113700
     66 HC18        -0.1570    14.5800   -41.1670 hc         1 LIG       0.106700
     67 HC19        -2.1950    10.6360   -37.5520 hc         1 LIG       0.071700
     68 HC20        -2.9880     9.0560   -37.7540 hc         1 LIG       0.071700
     69 HC21        -0.3160     8.7540   -38.7010 hc         1 LIG       0.068700
     70 HC22        -2.0190    16.2140   -41.0570 hc         1 LIG       0.046533
     71 HC23        -1.4520    16.0020   -42.7300 hc         1 LIG       0.046533
     72 HC24        -2.9590    15.2190   -42.1950 hc         1 LIG       0.046533
     73 HC25         0.2380    10.8200   -37.4450 hc         1 LIG       0.032700
     74 HC26        -0.4800    10.1180   -35.9750 hc         1 LIG       0.032700
     75 HC27         0.9810     9.3910   -36.6860 hc         1 LIG       0.032700
     76 HC28        -1.7370     7.0280   -37.6250 hc         1 LIG       0.032700
     77 HC29        -1.6330     7.9050   -36.0800 hc         1 LIG       0.032700
     78 HC30        -0.1720     7.1780   -36.7910 hc         1 LIG       0.032700
     79 HC31        -0.9850    13.8620   -43.5740 hc         1 LIG       0.046533
     80 HC32        -0.1950    12.6670   -42.5180 hc         1 LIG       0.046533
     81 HC33        -1.9690    12.6860   -42.6700 hc         1 LIG       0.046533
     82 HC34        -2.6640    18.5900   -36.2120 hx         1 LIG       0.105700
     83 HC35        -3.4730    17.2870   -35.3080 hx         1 LIG       0.105700
     84 HC36        -2.3400    18.3780   -34.4750 hx         1 LIG       0.105700
@<TRIPOS>BOND
     1    40    38 1   
     2    39    38 1   
     3    38    10 1   
     4     4     5 1   
     5     4     3 1   
     6     7     3 1   
     7     7     6 1   
     8     7     8 1   
     9     5     6 1   
    10     9    10 1   
    11     9     8 1   
    12     3     2 1   
    13    10    11 1   
    14    10    15 1   
    15    13     2 2   
    16     2     1 1   
    17    12    11 2   
    18    11    14 1   
    19     8    14 1   
    20     8    41 1   
    21    14     1 1   
    22     1    43 1   
    23    18    17 2   
    24    15    17 1   
    25    15    16 1   
    26    17    19 1   
    27    41    42 1   
    28    43    45 1   
    29    45    46 1   
    30    45    44 1   
    31    19    37 1   
    32    19    20 1   
    33    37    35 1   
    34    20    21 2   
    35    35    36 1   
    36    35    34 1   
    37    21    34 1   
    38    21    22 1   
    39    34    32 1   
    40    33    22 ar  
    41    33    30 ar  
    42    22    23 ar  
    43    32    31 1   
    44    30    29 ar  
    45    23    31 1   
    46    23    24 ar  
    47    31    27 2   
    48    29    24 ar  
    49    24    25 1   
    50    27    25 1   
    51    27    28 1   
    52    25    26 1   
    53    47     1 1   
    54    48     4 1   
    55    49     4 1   
    56    50     5 1   
    57    51     5 1   
    58    52     6 1   
    59    53     6 1   
    60    54     7 1   
    61    55    19 1   
    62    56    20 1   
    63    57    29 1   
    64    58    30 1   
    65    59    32 1   
    66    60    32 1   
    67    61    33 1   
    68    62    34 1   
    69    63    35 1   
    70    64    37 1   
    71    65    37 1   
    72    66    38 1   
    73    67    43 1   
    74    68    43 1   
    75    69    45 1   
    76    70    39 1   
    77    71    39 1   
    78    72    39 1   
    79    73    44 1   
    80    74    44 1   
    81    75    44 1   
    82    76    46 1   
    83    77    46 1   
    84    78    46 1   
    85    79    40 1   
    86    80    40 1   
    87    81    40 1   
    88    82    36 1   
    89    83    36 1   
    90    84    36 1   
@<TRIPOS>SUBSTRUCTURE
     1 LIG         1 TEMP              0 ****  ****    0 ROOT
