@<TRIPOS>MOLECULE
LIG
   85    89     1     0     0
SMALL
bcc


@<TRIPOS>ATOM
      1 C           -6.6660    19.9020   -28.6650 c          1 LIG       0.659300
      2 O           -7.4160    20.7680   -29.0780 o          1 LIG      -0.538000
      3 C1          -6.1930    19.9140   -24.9200 ce         1 LIG      -0.260400
      4 C2          -5.0630    20.6400   -24.8810 c2         1 LIG       0.210800
      5 N           -4.3580    20.9000   -26.0260 nu         1 LIG      -0.630800
      6 H           -3.4350    21.1920   -25.9680 hn         1 LIG       0.453800
      7 C3          -4.9510    20.7510   -27.2500 c2         1 LIG       0.189800
      8 C4          -6.0770    20.0290   -27.3870 ce         1 LIG      -0.249400
      9 C5          -4.3330    21.4020   -28.4600 c3         1 LIG      -0.080900
     10 C6          -4.5640    21.1740   -23.5630 c3         1 LIG      -0.078900
     11 C7          -6.7200    19.3500   -26.2080 c3         1 LIG       0.107000
     12 C8          -6.4290    17.8720   -26.2680 ca         1 LIG      -0.091300
     13 C9          -7.4460    16.9780   -26.5440 ca         1 LIG      -0.069000
     14 C10         -7.1790    15.6230   -26.5990 ca         1 LIG      -0.144000
     15 C11         -5.8960    15.1620   -26.3770 ca         1 LIG      -0.069000
     16 C12         -4.8780    16.0570   -26.1020 ca         1 LIG      -0.183200
     17 C13         -5.1440    17.4120   -26.0510 ca         1 LIG      -0.060000
     18 N1          -3.5020    15.5630   -25.8630 no         1 LIG       0.314200
     19 O1          -2.5860    15.9470   -26.5690 o          1 LIG      -0.219000
     20 O2          -3.2880    14.7720   -24.9630 o          1 LIG      -0.219000
     21 C14         -6.9000    19.6720   -23.7180 c          1 LIG       0.660300
     22 O3          -6.6170    18.7100   -23.0290 o          1 LIG      -0.559000
     23 C15         -7.7920    21.0720   -22.0280 c3         1 LIG       0.127700
     24 O4          -7.8890    20.5070   -23.3370 os         1 LIG      -0.450900
     25 O5          -6.3970    18.8230   -29.4280 os         1 LIG      -0.449900
     26 C16         -5.9500    19.0670   -30.7640 c3         1 LIG       0.093400
     27 C17         -5.7140    17.7330   -31.4740 c3         1 LIG       0.159800
     28 N2          -4.2980    17.6200   -31.8460 nx         1 LIG      -0.988400
     29 C18         -4.0370    16.3580   -32.5520 c3         1 LIG       0.065300
     30 C19         -2.5670    16.3060   -32.9740 c3         1 LIG       0.093300
     31 N3          -1.7120    16.4060   -31.7860 nx         1 LIG      -0.979400
     32 C20         -1.9660    17.6830   -31.1040 c3         1 LIG       0.093300
     33 H1          -1.9180    15.6440   -31.1570 hn         1 LIG       0.380800
     34 C21         -3.4310    17.7460   -30.6660 c3         1 LIG       0.065300
     35 C22         -0.3020    16.3400   -32.1890 c3         1 LIG       0.269100
     36 C23          0.1840    14.9170   -32.0840 ca         1 LIG      -0.091300
     37 C24          1.4270    14.5720   -32.5800 ca         1 LIG      -0.122750
     38 C25          1.8730    13.2670   -32.4840 ca         1 LIG      -0.129750
     39 C26          1.0750    12.3070   -31.8900 ca         1 LIG      -0.130500
     40 C27         -0.1680    12.6510   -31.3930 ca         1 LIG      -0.129750
     41 C28         -0.6110    13.9570   -31.4860 ca         1 LIG      -0.122750
     42 C29          0.5230    17.2190   -31.2840 ca         1 LIG      -0.091300
     43 C30          1.0470    18.4050   -31.7640 ca         1 LIG      -0.122750
     44 C31          1.8030    19.2120   -30.9340 ca         1 LIG      -0.129750
     45 C32          2.0360    18.8320   -29.6260 ca         1 LIG      -0.130500
     46 C33          1.5120    17.6460   -29.1460 ca         1 LIG      -0.129750
     47 C34          0.7520    16.8410   -29.9740 ca         1 LIG      -0.122750
     48 HC          -7.7980    19.5040   -26.2510 hc         1 LIG       0.105700
     49 HC1         -8.4490    17.3380   -26.7170 ha         1 LIG       0.172000
     50 HC2         -7.9740    14.9250   -26.8160 ha         1 LIG       0.149000
     51 HC3         -5.6880    14.1030   -26.4180 ha         1 LIG       0.167000
     52 HC4         -4.3480    18.1110   -25.8420 ha         1 LIG       0.169000
     53 HC5         -5.0200    19.6340   -30.7380 h1         1 LIG       0.061200
     54 HC6         -6.7080    19.6360   -31.3020 h1         1 LIG       0.061200
     55 HC7         -5.9800    16.9140   -30.8060 hx         1 LIG       0.065700
     56 HC8         -6.3300    17.6850   -32.3720 hx         1 LIG       0.065700
     57 HN          -4.0800    18.3790   -32.4750 hn         1 LIG       0.367800
     58 HC9         -4.6710    16.2980   -33.4360 hx         1 LIG       0.054950
     59 HC10        -4.2550    15.5200   -31.8910 hx         1 LIG       0.054950
     60 HC11        -2.3690    15.3640   -33.4850 hx         1 LIG       0.063200
     61 HC12        -2.3530    17.1360   -33.6470 hx         1 LIG       0.063200
     62 HC13        -1.3220    17.7610   -30.2280 hx         1 LIG       0.063200
     63 HC14        -1.7550    18.5070   -31.7850 hx         1 LIG       0.063200
     64 HC15        -3.6230    18.6990   -30.1740 hx         1 LIG       0.054950
     65 HC16        -3.6390    16.9310   -29.9730 hx         1 LIG       0.054950
     66 HC17        -0.2020    16.6830   -33.2190 hx         1 LIG       0.060700
     67 HC18         2.0500    15.3230   -33.0430 ha         1 LIG       0.131000
     68 HC19         2.8440    12.9980   -32.8730 ha         1 LIG       0.136000
     69 HC20         1.4230    11.2870   -31.8140 ha         1 LIG       0.131500
     70 HC21        -0.7930    11.9000   -30.9320 ha         1 LIG       0.136000
     71 HC22        -1.5790    14.2280   -31.0910 ha         1 LIG       0.131000
     72 HC23         0.8660    18.7010   -32.7870 ha         1 LIG       0.131000
     73 HC24         2.2110    20.1390   -31.3080 ha         1 LIG       0.136000
     74 HC25         2.6280    19.4620   -28.9780 ha         1 LIG       0.131500
     75 HC26         1.6960    17.3480   -28.1240 ha         1 LIG       0.136000
     76 HC27         0.3370    15.9170   -29.5980 ha         1 LIG       0.131000
     77 HC28        -8.6480    21.7230   -21.8480 h1         1 LIG       0.051700
     78 HC29        -6.8720    21.6520   -21.9500 h1         1 LIG       0.051700
     79 HC30        -7.7810    20.2730   -21.2870 h1         1 LIG       0.051700
     80 HC31        -3.4310    21.9380   -28.1640 hc         1 LIG       0.071033
     81 HC32        -5.0440    22.1020   -28.8990 hc         1 LIG       0.071033
     82 HC33        -4.0770    20.6370   -29.1930 hc         1 LIG       0.071033
     83 HC34        -3.6410    21.7310   -23.7220 hc         1 LIG       0.071033
     84 HC35        -5.3160    21.8340   -23.1300 hc         1 LIG       0.071033
     85 HC36        -4.3750    20.3440   -22.8830 hc         1 LIG       0.071033
@<TRIPOS>BOND
     1     1     2 2   
     2     1     8 1   
     3     1    25 1   
     4     3     4 2   
     5     3    11 1   
     6     3    21 1   
     7     4     5 1   
     8     4    10 1   
     9     5     6 1   
    10     5     7 1   
    11     7     8 2   
    12     7     9 1   
    13     8    11 1   
    14     9    80 1   
    15     9    81 1   
    16     9    82 1   
    17    10    83 1   
    18    10    84 1   
    19    10    85 1   
    20    11    12 1   
    21    11    48 1   
    22    12    13 ar  
    23    12    17 ar  
    24    13    14 ar  
    25    13    49 1   
    26    14    15 ar  
    27    14    50 1   
    28    15    16 ar  
    29    15    51 1   
    30    16    17 ar  
    31    16    18 1   
    32    17    52 1   
    33    18    19 1   
    34    18    20 1   
    35    21    22 2   
    36    21    24 1   
    37    23    24 1   
    38    23    77 1   
    39    23    78 1   
    40    23    79 1   
    41    25    26 1   
    42    26    27 1   
    43    26    53 1   
    44    26    54 1   
    45    27    28 1   
    46    27    55 1   
    47    27    56 1   
    48    28    29 1   
    49    28    34 1   
    50    28    57 1   
    51    29    30 1   
    52    29    58 1   
    53    29    59 1   
    54    30    31 1   
    55    30    60 1   
    56    30    61 1   
    57    31    32 1   
    58    31    33 1   
    59    31    35 1   
    60    32    34 1   
    61    32    62 1   
    62    32    63 1   
    63    34    64 1   
    64    34    65 1   
    65    35    36 1   
    66    35    42 1   
    67    35    66 1   
    68    36    37 ar  
    69    36    41 ar  
    70    37    38 ar  
    71    37    67 1   
    72    38    39 ar  
    73    38    68 1   
    74    39    40 ar  
    75    39    69 1   
    76    40    41 ar  
    77    40    70 1   
    78    41    71 1   
    79    42    43 ar  
    80    42    47 ar  
    81    43    44 ar  
    82    43    72 1   
    83    44    45 ar  
    84    44    73 1   
    85    45    46 ar  
    86    45    74 1   
    87    46    47 ar  
    88    46    75 1   
    89    47    76 1   
@<TRIPOS>SUBSTRUCTURE
     1 LIG         1 TEMP              0 ****  ****    0 ROOT
