@<TRIPOS>MOLECULE
LIG
   50    53     1     0     0
SMALL
bcc


@<TRIPOS>ATOM
      1 C          -19.7540    -5.1750   -25.7170 ca         1 LIG       0.014000
      2 C1         -19.0150    -6.3510   -25.8640 ca         1 LIG      -0.101000
      3 C2         -19.1030    -7.0740   -27.0340 ca         1 LIG      -0.098000
      4 C3         -19.9240    -6.6410   -28.0700 ca         1 LIG      -0.032100
      5 S          -20.0030    -7.5840   -29.5540 ss         1 LIG      -0.166800
      6 C4         -20.6910    -6.4570   -30.7200 ca         1 LIG      -0.036100
      7 C5         -20.5680    -6.7230   -32.0760 ca         1 LIG      -0.076000
      8 C6         -21.1000    -5.8510   -33.0080 ca         1 LIG      -0.120000
      9 C7         -21.7580    -4.7100   -32.5880 ca         1 LIG      -0.092000
     10 C8         -21.8850    -4.4390   -31.2390 ca         1 LIG      -0.126000
     11 C9         -21.3540    -5.3100   -30.2930 ca         1 LIG       0.022700
     12 N          -21.5080    -5.0090   -28.9430 na         1 LIG      -0.166100
     13 C10        -20.6700    -5.4700   -27.9310 ca         1 LIG       0.000700
     14 C11        -20.5840    -4.7420   -26.7540 ca         1 LIG      -0.130000
     15 N1         -19.5920    -3.8180   -23.5430 n1         1 LIG      -0.301800
     16 C12        -19.6640    -4.4180   -24.5050 cg         1 LIG       0.200800
     17 C13        -22.6310    -4.1480   -28.5600 c3         1 LIG       0.023300
     18 C14        -23.9300    -4.9580   -28.6000 c3         1 LIG      -0.146400
     19 C15        -24.1650    -5.6090   -27.2350 c3         1 LIG       0.098800
     20 N2         -24.3630    -4.5630   -26.2220 nx         1 LIG      -0.686400
     21 C16        -23.6630    -4.9420   -24.9880 c3         1 LIG       0.115800
     22 C17        -23.7980    -3.8190   -23.9560 c3         1 LIG      -0.131400
     23 C18        -25.2820    -3.5870   -23.6540 c3         1 LIG       0.143100
     24 C19        -26.0140    -3.2660   -24.9590 c3         1 LIG      -0.131400
     25 C20        -25.7970    -4.4100   -25.9530 c3         1 LIG       0.115800
     26 H          -23.9910    -3.6900   -26.5640 hn         1 LIG       0.454800
     27 O          -25.4180    -2.4910   -22.7470 oh         1 LIG      -0.572800
     28 H1         -25.7290    -2.7460   -21.8670 ho         1 LIG       0.425000
     29 HC         -18.3760    -6.6930   -25.0630 ha         1 LIG       0.169000
     30 HC1        -18.5310    -7.9830   -27.1470 ha         1 LIG       0.167000
     31 HC2        -20.0550    -7.6140   -32.4050 ha         1 LIG       0.157000
     32 HC3        -21.0020    -6.0610   -34.0630 ha         1 LIG       0.157000
     33 HC4        -22.1740    -4.0290   -33.3160 ha         1 LIG       0.155000
     34 HC5        -22.4000    -3.5460   -30.9170 ha         1 LIG       0.151000
     35 HC6        -21.1610    -3.8360   -26.6380 ha         1 LIG       0.165000
     36 HC7        -22.4700    -3.7680   -27.5510 h1         1 LIG       0.070700
     37 HC8        -22.7020    -3.3120   -29.2560 h1         1 LIG       0.070700
     38 HC9        -23.8520    -5.7320   -29.3630 hc         1 LIG       0.089200
     39 HC10       -24.7640    -4.2970   -28.8360 hc         1 LIG       0.089200
     40 HC11       -23.2990    -6.2150   -26.9670 hx         1 LIG       0.110200
     41 HC12       -25.0510    -6.2420   -27.2820 hx         1 LIG       0.110200
     42 HC13       -24.1020    -5.8560   -24.5880 hx         1 LIG       0.100700
     43 HC14       -22.6080    -5.1100   -25.2060 hx         1 LIG       0.100700
     44 HC15       -23.3600    -2.9040   -24.3540 hc         1 LIG       0.096450
     45 HC16       -23.2800    -4.1020   -23.0400 hc         1 LIG       0.096450
     46 HC17       -25.7090    -4.4850   -23.2080 h1         1 LIG       0.053700
     47 HC18       -27.0800    -3.1530   -24.7610 hc         1 LIG       0.096450
     48 HC19       -25.6210    -2.3400   -25.3780 hc         1 LIG       0.096450
     49 HC20       -26.3190    -4.1860   -26.8840 hx         1 LIG       0.100700
     50 HC21       -26.1880    -5.3360   -25.5320 hx         1 LIG       0.100700
@<TRIPOS>BOND
     1     8     9 ar  
     2     8     7 ar  
     3     9    10 ar  
     4     7     6 ar  
     5    10    11 ar  
     6     6    11 ar  
     7     6     5 1   
     8    11    12 1   
     9     5     4 1   
    10    12    17 1   
    11    12    13 1   
    12    18    17 1   
    13    18    19 1   
    14     4    13 ar  
    15     4     3 ar  
    16    13    14 ar  
    17    19    20 1   
    18     3     2 ar  
    19    14     1 ar  
    20    26    20 1   
    21    20    25 1   
    22    20    21 1   
    23    25    24 1   
    24     2     1 ar  
    25     1    16 1   
    26    21    22 1   
    27    24    23 1   
    28    16    15 3   
    29    22    23 1   
    30    23    27 1   
    31    27    28 1   
    32    29     2 1   
    33    30     3 1   
    34    31     7 1   
    35    32     8 1   
    36    33     9 1   
    37    34    10 1   
    38    35    14 1   
    39    36    17 1   
    40    37    17 1   
    41    38    18 1   
    42    39    18 1   
    43    40    19 1   
    44    41    19 1   
    45    42    21 1   
    46    43    21 1   
    47    44    22 1   
    48    45    22 1   
    49    46    23 1   
    50    47    24 1   
    51    48    24 1   
    52    49    25 1   
    53    50    25 1   
@<TRIPOS>SUBSTRUCTURE
     1 LIG         1 TEMP              0 ****  ****    0 ROOT
